30
COMP62_420001.log	Energy: -1671601.2893792
C         -2.41816       -0.56110       -0.11400
C         -1.11082        0.01157       -0.11336
C         -0.71683        1.28007        0.31161
O         -1.43588        2.28044        0.76768
C          0.71440        1.40999        0.29158
Cl         1.47737        2.86388        0.80903
C          1.37971        0.29651       -0.13735
S          0.27021       -0.96187       -0.56673
C          2.81478        0.10558       -0.32409
S          3.71217        1.07804       -1.44539
C          5.17509        0.23467       -1.09894
H          6.09659        0.51191       -1.59261
C          4.99007       -0.74772       -0.17057
O          5.90404       -1.59900        0.34186
C          3.63062       -0.82081        0.26847
Cl         3.12488       -1.96167        1.45898
C         -3.67176        0.01699       -0.03638
C         -4.33838        1.28836       -0.03631
O         -3.91549        2.45133       -0.00583
N         -5.69370        0.94781       -0.08085
H         -6.42065        1.64643       -0.07476
C         -5.88749       -0.42525       -0.13037
H         -6.88034       -0.84578       -0.19864
C         -4.66729       -1.01430       -0.09797
C         -3.98463       -2.30689       -0.19626
O         -4.37290       -3.44989       -0.24168
N         -2.61204       -1.92818       -0.22476
H         -1.88373       -2.62436       -0.15663
H         -2.39013        2.31946        0.45034
H          6.76790       -1.41063       -0.04341
