38
COMP51_300200.log	Energy: -2195427.7300171
C         -1.19442       -0.58607        0.30231
C          0.24575       -0.36678        0.20237
C          0.94519        0.74077        0.60491
C          0.27050        1.81016        1.26807
N         -0.31121        2.65807        1.80519
C          2.37111        0.66284        0.32974
C          3.39559        1.58595        0.59101
C          3.21281        2.93324        1.23819
C          4.67322        1.18498        0.20684
S          6.10022        2.17724        0.44095
C          7.09783        0.97274       -0.27558
H          8.16316        1.13295       -0.37428
C          6.41647       -0.13390       -0.67842
C          7.11732       -1.21374       -1.29726
N          7.72226       -2.06860       -1.79596
C          4.98587       -0.05314       -0.41189
C          3.96246       -0.97440       -0.67387
C          4.14831       -2.32089       -1.32148
C          2.68365       -0.57252       -0.29267
S          1.26373       -1.56244       -0.53713
C         -1.87810       -1.61137        0.90935
Cl        -1.13143       -2.90277        1.77520
N         -3.23013       -1.57702        0.83503
C         -3.61244       -0.52409        0.16431
S         -2.34494        0.49522       -0.41842
C         -5.00953       -0.20634       -0.08504
S         -6.28836       -1.21408        0.51201
C         -7.41632       -0.13573       -0.20760
H         -8.48339       -0.28853       -0.14322
C         -6.74617        0.87767       -0.82803
Cl        -7.51647        2.17261       -1.67149
N         -5.38930        0.84167       -0.76230
H          2.17029        3.19003        1.41257
H          3.64529        3.71859        0.60716
H          3.72854        2.96600        2.20532
H          5.19136       -2.56419       -1.51373
H          3.61608       -2.36219       -2.27943
H          3.73653       -3.11011       -0.68127
