52
COMP82_200002.log	Energy: -1962172.0202512
C         -0.91339       -0.47065        0.31657
C         -2.37040       -0.58822        0.47689
C         -3.12025       -1.42574        1.26221
Cl        -2.46042       -2.59463        2.36379
C         -4.52417       -1.22713        1.16671
H         -5.24444       -1.78421        1.75375
C         -4.85082       -0.22944        0.29049
S         -3.42745        0.45239       -0.42926
C         -6.17274        0.26185       -0.06917
S         -7.54644       -0.80331       -0.07089
C         -8.60685        0.46458       -0.55298
H         -9.66352        0.28896       -0.69318
C         -7.92354        1.63058       -0.71685
Cl        -8.67106        3.11897       -1.20253
C         -6.53122        1.52916       -0.44174
H         -5.84440        2.36515       -0.49459
C         -0.31113        0.79037        0.24285
C          1.06376        0.94003        0.07453
C          1.87546       -0.18991       -0.01644
C          3.31582       -0.43552       -0.24420
C          3.44146       -1.94381       -0.41549
O          4.39064       -2.64078       -0.70935
N          2.18690       -2.43708       -0.14614
O          1.87319       -3.76073       -0.21100
C          1.71268       -4.17786       -1.57178
C          1.23459       -1.44401        0.03101
C         -0.12074       -1.62159        0.19818
C          4.39363        0.39701       -0.22528
C          4.31059        1.84364        0.24758
O          3.35860        2.55363        0.49207
N          5.62010        2.23655        0.42825
O          5.94839        3.55703        0.57597
C          5.93099        3.91578        1.95835
C          6.52355        1.33038       -0.11916
C          7.88190        1.50856       -0.28490
C          8.58991        0.46391       -0.87877
H          9.66020        0.56581       -1.03050
C          7.93722       -0.69605       -1.28664
C          6.56264       -0.85270       -1.10960
C          5.82682        0.16876       -0.50560
H         -0.92374        1.68125        0.33970
H          1.49908        1.92579        0.02663
H          1.41973       -5.22641       -1.50903
H          2.65834       -4.08279       -2.11145
H          0.92510       -3.59595       -2.06311
H         -0.54785       -2.61656        0.22111
H          6.23564        4.96314        1.97995
H          6.63983        3.30405        2.52651
H          4.92279        3.81035        2.36779
H          8.35927        2.43274        0.01928
H          8.50120       -1.49562       -1.75574
H          6.06987       -1.75598       -1.43314
