34
COMP47_110000.log	Energy: -1537807.8241666
C         -2.92161       -0.87567       -0.00072
C         -1.47921       -0.98922       -0.00056
C         -0.74285       -2.14682       -0.00014
F         -1.27508       -3.36821       -0.00011
C          0.65360       -1.94982        0.00034
F          1.49950       -2.98175        0.00106
C          1.01946       -0.62984        0.00020
S         -0.39781        0.37816       -0.00170
C          2.33089       -0.01214        0.00070
C          3.49626       -0.68843        0.00031
C          4.81009       -0.07483        0.00048
C          5.18240        1.24260       -0.00182
F          4.33338        2.27112       -0.00450
C          6.58884        1.44588       -0.00124
F          7.11584        2.66652       -0.00325
C          7.29763        0.28787        0.00135
H          8.37090        0.17104        0.00238
S          6.23903       -1.07189        0.00401
C         -3.73352        0.22945       -0.00189
C         -3.58269        1.70272        0.00144
O         -2.58091        2.38438        0.00221
N         -4.89086        2.20457        0.00472
C         -5.20524        3.61675        0.00409
C         -5.87736        1.20948       -0.00041
O         -7.06722        1.41665       -0.00142
C         -5.11999       -0.06790       -0.00278
C         -5.40076       -1.39261       -0.00250
H         -6.36222       -1.88723       -0.00348
S         -3.93731       -2.31068       -0.00050
H          2.34157        1.07332        0.00135
H          3.48322       -1.77398       -0.00017
H         -4.26187        4.16371        0.00246
H         -5.78454        3.87569        0.89388
H         -5.78705        3.87390       -0.88463
