52
COMP71_400022.log	Energy: -1956631.9034753
C         -0.69198       -1.54472       -0.31935
C          0.62828       -0.97301       -0.11824
C          1.16832        0.18236       -0.63134
O          0.52040        1.10543       -1.34404
C          2.59009        0.30960       -0.37754
C          3.47494        1.33421       -0.74245
O          3.11548        2.44329       -1.44450
C          2.42421        3.42971       -0.68484
C          4.81157        1.18413       -0.38878
S          6.05882        2.35292       -0.74890
C          7.24212        1.35313        0.05782
H          8.27314        1.67861        0.11225
C          6.72801        0.20510        0.56105
O          7.40138       -0.76580        1.23022
C          5.30748        0.06490        0.31880
C          4.42059       -0.95321        0.69128
O          4.79371       -2.05118        1.40997
C          5.39646       -3.08128        0.63470
C          3.08820       -0.80723        0.32904
S          1.83856       -1.95669        0.72150
C         -1.98267       -1.02731       -0.29043
C         -2.37351        0.35227        0.03488
O         -1.56199        1.27400        0.17004
C         -3.81253        0.58302        0.19344
C         -4.36217        1.78699        0.54874
O         -3.69581        2.89959        0.83011
C         -4.42336        4.05317        1.21745
S         -6.12031        1.71822        0.59641
C         -6.08954        0.02437        0.10967
O         -7.20042       -0.68766       -0.04046
C         -8.45199       -0.03492        0.08343
C         -4.81432       -0.43225       -0.06210
C         -4.45178       -1.79873       -0.46420
O         -5.25900       -2.67901       -0.70959
C         -2.98643       -2.03714       -0.51978
C         -2.46554       -3.27559       -0.72622
H         -3.02300       -4.18527       -0.90207
S         -0.75608       -3.26026       -0.64882
H         -0.36214        1.22704       -0.91132
H          2.25525        4.26644       -1.36411
H          3.03672        3.76084        0.16290
H          1.46331        3.04667       -0.33103
H          8.32548       -0.50129        1.31273
H          5.58914       -3.90468        1.32399
H          6.34148       -2.74028        0.20051
H          4.71790       -3.41703       -0.15910
H         -3.67662        4.82545        1.39673
H         -4.98865        3.86804        2.13870
H         -5.10157        4.37738        0.41905
H         -9.20439       -0.80398       -0.08596
H         -8.55844        0.75525       -0.66941
H         -8.57992        0.38525        1.08875
