34
COMP57_020300.log	Energy: -2146821.3910132
C          1.75523        0.35611        0.33530
C          0.36974       -0.06932        0.43312
C         -0.15582       -1.22645        0.96401
Cl         0.78543       -2.47096        1.71601
C         -1.56465       -1.31732        0.89042
H         -2.12511       -2.14571        1.30471
C         -2.12936       -0.22536        0.27910
S         -0.91729        0.91771       -0.19088
C         -3.52973        0.05643        0.00379
C         -4.49461       -0.87862        0.00804
C         -5.90698       -0.61100       -0.21010
C         -6.57850        0.58520       -0.22749
H         -6.11916        1.54901       -0.04671
C         -7.96478        0.41780       -0.48583
Cl        -9.06702        1.75506       -0.56271
C         -8.34606       -0.88047       -0.65496
H         -9.33736       -1.26085       -0.85425
S         -6.99739       -1.93360       -0.50344
C          2.28449        1.62456        0.49413
C          1.52844        2.78159        0.87014
N          0.91379        3.71526        1.17501
N          3.63103        1.75256        0.29480
C          4.14884        0.60136       -0.01612
S          3.03725       -0.72745       -0.09473
C          5.56883        0.40885       -0.26951
S          6.69183        1.73530       -0.16396
C          7.94864        0.64855       -0.58074
H          8.97794        0.96487       -0.67292
C          7.44031       -0.60967       -0.76495
C          8.23402       -1.74819       -1.12310
N          8.89920       -2.65079       -1.41293
N          6.08691       -0.74043       -0.58725
H         -3.78100        1.09004       -0.22313
H         -4.22345       -1.91922        0.17578
