23
COMP14_400000.log	Energy: -1179545.2994360
C         -1.68735        0.64691       -0.25736
C         -0.28217        0.36812       -0.15750
C          0.37395       -0.85010       -0.26493
O         -0.11316       -2.07150       -0.48019
C          1.78418       -0.67985       -0.14353
S          3.12638       -1.76853       -0.17668
C          4.22162       -0.43422        0.06444
H          5.28611       -0.61921        0.12418
C          3.58989        0.77231        0.16244
O          4.13418        1.99769        0.35062
C          2.17682        0.62600        0.03806
S          0.83775        1.71592        0.07891
C         -2.36029        1.74005       -0.66280
C         -3.82417        1.62527       -0.56887
C         -4.28254        0.46606       -0.08775
H         -5.29338        0.11161        0.05310
S         -2.90194       -0.55228        0.34724
O         -2.84353       -1.75227       -0.50652
O         -2.78930       -0.72228        1.78762
H         -1.08984       -2.08058       -0.57603
H          5.09235        1.91558        0.42269
H         -1.88156        2.62646       -1.06227
H         -4.47410        2.42804       -0.89866
