44
COMP67_110003.log	Energy: -1583895.7557426
C          2.18838       -0.75726        0.11467
C          0.75940       -0.86637       -0.04015
C          0.04146       -1.87151       -0.64028
F          0.57329       -2.95426       -1.19668
C         -1.34776       -1.64629       -0.65767
F         -2.18526       -2.52586       -1.20953
C         -1.72439       -0.45875       -0.08052
S         -0.32071        0.39302        0.47630
C         -3.03803        0.12871        0.09374
C         -4.18870       -0.45007       -0.30213
C         -5.50797        0.12620       -0.13388
C         -5.90239        1.31016        0.42936
F         -5.07413        2.20900        0.96233
C         -7.30720        1.52128        0.40581
F         -7.85465        2.62174        0.91245
C         -7.99229        0.50205       -0.17374
H         -9.05960        0.42076       -0.31419
S         -6.91357       -0.73379       -0.69997
C          2.97188        0.35857        0.12001
C          2.88846        1.80940       -0.01588
O          1.94835        2.56408       -0.04043
N          4.29209        2.19140       -0.08826
C          4.85525        3.46966       -0.22473
O          6.05002        3.64130       -0.27814
O          3.92780        4.41052       -0.28653
C          4.42877        5.74140       -0.43541
C          5.12148        1.06848       -0.01102
H          6.19124        1.19653       -0.08617
C          4.35144       -0.02807        0.13035
C          4.43667       -1.48543        0.18143
O          5.37153       -2.23565        0.27285
N          3.03677       -1.88469        0.15586
C          2.60698       -3.15813        0.60751
O          1.70184       -3.31708        1.38630
O          3.33999       -4.10844        0.05486
C          3.04600       -5.43347        0.50411
H         -3.06408        1.09981        0.57769
H         -4.15753       -1.42096       -0.78632
H          3.54536        6.37772       -0.43965
H          4.97786        5.83798       -1.37465
H          5.08690        5.99797        0.39742
H          3.72553       -6.07969       -0.04860
H          2.00579       -5.68242        0.28345
H          3.22120       -5.51919        1.57872
