50
COMP94_300003.log	Energy: -1639919.8900844
C         -0.27798       -0.46331       -0.05682
C         -1.60993       -1.10464        0.03036
C         -2.42361       -1.13003        1.13531
C         -2.10837       -0.45057        2.34800
N         -1.84733        0.10816        3.32959
C         -3.61896       -1.87159        0.88460
S         -5.02564       -2.27826        1.80460
C         -5.68026       -3.15230        0.46788
H         -6.64224       -3.63802        0.55597
C         -4.87031       -3.14278       -0.63692
C         -5.18526       -3.79412       -1.86696
N         -5.42278       -4.31857       -2.87290
C         -3.67435       -2.39580       -0.38842
S         -2.26740       -1.99111       -1.30813
C          0.85167       -1.30758        0.04619
C          2.12302       -0.79152        0.05073
C          3.28203       -1.71644        0.16428
O          3.17405       -2.92129        0.22467
N          4.53715       -1.10631        0.19954
C          5.68099       -1.99080        0.36052
O          6.12564       -2.29230        1.42763
O          6.10454       -2.37291       -0.82932
C          7.23095       -3.25922       -0.81115
C          4.81573        0.26071        0.10154
O          5.95955        0.65874        0.10817
C          3.63269        1.15398       -0.00814
C          3.81877        2.51437       -0.08312
H          4.82789        2.91100       -0.05586
C          2.70754        3.37093       -0.18873
C          1.43215        2.85624       -0.22751
C          0.28700        3.79209       -0.33989
O          0.39874        4.99776       -0.36707
N         -0.96756        3.18829       -0.42741
C         -2.09976        4.07858       -0.64170
O         -2.44663        4.44073       -1.72611
O         -2.63021        4.38881        0.52488
C         -3.77000        5.25506        0.45899
C         -1.26448        1.82594       -0.37656
O         -2.41138        1.45790       -0.50845
C         -0.10135        0.90862       -0.18017
C          1.20857        1.45776       -0.15275
C          2.32817        0.60321       -0.03737
H          0.71785       -2.38042        0.14007
H          7.44471       -3.47332       -1.85667
H          6.97748       -4.17352       -0.27075
H          8.08238       -2.77166       -0.33211
H          2.83714        4.44639       -0.24290
H         -4.05924        5.42756        1.49393
H         -4.57609        4.76812       -0.09380
H         -3.50009        6.19240       -0.03143
