44
COMP72_000003.log	Energy: -1812970.6342361
C          0.94505       -1.43568       -0.40771
C          2.20822       -0.71337       -0.45553
C          2.55592        0.40526       -1.17023
H          1.85252        0.93713       -1.79306
C          3.90734        0.78703       -0.98481
H          4.35191        1.65889       -1.45134
C          4.59819       -0.03571       -0.13141
S          3.57725       -1.31056        0.45027
C          5.98407        0.05866        0.30095
S          7.17506        0.84319       -0.69404
C          8.41567        0.54821        0.46411
H          9.42435        0.88943        0.27637
C          7.94475       -0.12933        1.54918
H          8.56409       -0.41417        2.39122
C          6.55258       -0.40933        1.45762
H          5.98667       -0.91895        2.22967
C         -0.36990       -1.00225       -0.43204
C         -0.85944        0.38615       -0.54955
O         -0.18697        1.32777       -0.93293
C         -2.29778        0.56848       -0.19836
C         -2.89674        1.79369       -0.04430
C         -2.28213        3.15487       -0.09147
O         -2.67593        4.03602       -0.81602
O         -1.30512        3.27096        0.80320
C         -0.56883        4.49431        0.74480
S         -4.58728        1.64571        0.20335
C         -4.50637       -0.07693        0.17146
C         -5.73213       -0.85928        0.49751
O         -5.75829       -1.87788        1.13581
O         -6.81851       -0.22273        0.03184
C         -8.06802       -0.83955        0.34945
C         -3.22641       -0.51399       -0.07318
C         -2.78231       -1.92183       -0.27402
O         -3.54165       -2.85852       -0.40972
C         -1.30724       -2.08705       -0.30849
C         -0.70997       -3.30646       -0.21214
H         -1.20568       -4.26250       -0.11514
S          0.99559       -3.17240       -0.25484
H          0.18234        4.41838        1.52936
H         -1.22794        5.34756        0.92022
H         -0.09272        4.59506       -0.23308
H         -8.83070       -0.17741       -0.05789
H         -8.18136       -0.94115        1.43127
H         -8.12879       -1.82770       -0.11196
