34
COMP47_000000.log	Energy: -1288809.4943735
C          2.18819       -0.73045       -0.01510
C          0.81289       -0.28556        0.06863
C          0.36157        1.00703        0.20805
H          1.03914        1.85089        0.27203
C         -1.04734        1.09801        0.26781
H         -1.57607        2.03383        0.40535
C         -1.68438       -0.11686        0.16464
S         -0.52356       -1.39780        0.00359
C         -3.10405       -0.42866        0.16805
C         -4.07642        0.48307       -0.00959
C         -5.50048        0.19508        0.05010
C         -6.15561       -0.90734        0.54315
H         -5.64348       -1.74323        1.00580
C         -7.56824       -0.82538        0.41210
H         -8.25240       -1.59603        0.74692
C         -7.97753        0.33904       -0.17108
H         -8.98817        0.65890       -0.38376
S         -6.64375        1.34899       -0.57139
C          3.35818       -0.01106        0.00038
C          3.78636        1.40451        0.09654
O          3.13873        2.42454        0.20467
N          5.18755        1.36734        0.03943
C          6.02000        2.54922        0.09016
C          5.71595        0.07695       -0.08463
O          6.89358       -0.18462       -0.15319
C          4.52703       -0.81128       -0.10636
C          4.28978       -2.14026       -0.20411
H          4.99281       -2.95622       -0.29577
S          2.58500       -2.43248       -0.16463
H         -3.37302       -1.47226        0.31659
H         -3.80108        1.51437       -0.22161
H          5.37439        3.40001        0.31034
H          6.52231        2.70508       -0.86843
H          6.77565        2.43819        0.87120
