36
COMP57_130300.log	Energy: -1810261.3662704
C          1.88340       -0.32334       -0.29290
C          0.50519        0.13588       -0.30440
C          0.03239        1.41158       -0.56468
C          0.83064        2.53637       -0.92452
N          1.47156        3.45768       -1.21401
C         -1.38096        1.48405       -0.46662
F         -2.02534        2.62579       -0.69393
C         -2.00302        0.30815       -0.13739
S         -0.80454       -0.92860        0.06345
C         -3.40847       -0.00697        0.04014
C         -4.41032        0.88460       -0.08320
C         -5.81709        0.57493        0.09225
C         -6.43849       -0.60277        0.41290
F         -5.79267       -1.74499        0.63368
C         -7.85888       -0.52829        0.49935
C         -8.69477       -1.63805        0.82389
N         -9.37367       -2.53866        1.08877
C         -8.30972        0.73951        0.23472
H         -9.33614        1.07769        0.23029
S         -7.02480        1.81251       -0.10987
C          2.38640       -1.56799       -0.62999
C          1.60383       -2.66654       -1.11187
N          0.96438       -3.55240       -1.49758
N          3.73621       -1.72992       -0.50305
C          4.28164       -0.63007       -0.07297
S          3.19486        0.68971        0.21240
C          5.71183       -0.48747        0.15422
S          6.80959       -1.79972       -0.16255
C          8.09423       -0.79083        0.34899
H          9.12119       -1.12756        0.36206
C          7.61191        0.43811        0.71539
C          8.43548        1.50946        1.19305
N          9.12569        2.35588        1.57784
N          6.25590        0.60482        0.60259
H         -3.63510       -1.03935        0.28505
H         -4.18113        1.91617       -0.33016
