65
COMP86_000002.log	Energy: -1056071.0655123
C          1.12113        0.49274       -0.26309
C          2.60298        0.53707       -0.24858
C          3.34367       -0.61768        0.04321
C          4.72587       -0.56326        0.05393
C          5.71259       -1.68622        0.33794
C          5.53702       -2.24168        1.76063
C          5.57570       -2.81567       -0.69698
C          7.03997       -0.95712        0.18750
C          8.32348       -1.46205        0.32758
C          9.41050       -0.60660        0.14465
H         10.42094       -0.98981        0.25260
C          9.21052        0.73683       -0.17387
C          7.92248        1.24773       -0.31671
C          6.84054        0.39258       -0.13475
C          5.39489        0.63722       -0.21988
C          4.67475        1.79049       -0.51071
C          3.28537        1.73059       -0.52369
C          0.44183       -0.62349       -0.76483
C         -0.94884       -0.70470       -0.77410
C         -1.70664        0.35455       -0.27316
C         -3.14795        0.65258       -0.14198
C         -3.21155        2.10881        0.30193
O         -4.14577        2.87723        0.39737
N         -1.91101        2.44498        0.60299
O         -1.53582        3.71006        0.94724
C         -1.49415        4.56116       -0.20337
C         -0.99852        1.48012        0.19029
C          0.37511        1.57617        0.22410
C         -4.25255       -0.13901       -0.23383
C         -4.16733       -1.64976       -0.39763
O         -3.24328       -2.37336       -0.70208
N         -5.42271       -2.11749       -0.06355
O         -5.80511       -3.39417       -0.37948
C         -5.48877       -4.28053        0.69392
C         -6.36230       -1.09206        0.00519
C         -7.73074       -1.22601        0.12284
C         -8.48179       -0.05134        0.16126
H         -9.56208       -0.11356        0.25204
C         -7.86168        1.19172        0.07437
C         -6.47615        1.30233       -0.04600
C         -5.69459        0.14588       -0.07132
H          2.82571       -1.54330        0.28207
H          4.55188       -2.70763        1.87408
H          5.62916       -1.44563        2.50555
H          6.29707       -3.00178        1.97268
H          4.59144       -3.29076       -0.61977
H          6.33718       -3.58558       -0.52975
H          5.69442       -2.42886       -1.71354
H          8.48614       -2.50827        0.57466
H         10.06694        1.39024       -0.31168
H          7.77005        2.29490       -0.56325
H          5.18177        2.72524       -0.73308
H          2.71672        2.62123       -0.77560
H          1.01216       -1.44486       -1.18703
H         -1.43778       -1.57827       -1.17587
H         -1.13516        5.52027        0.17187
H         -2.49350        4.67488       -0.63169
H         -0.79597        4.16571       -0.94985
H          0.85066        2.45504        0.64531
H         -5.87085       -5.25194        0.37634
H         -5.98479       -3.96325        1.61741
H         -4.40655       -4.33297        0.84015
H         -8.18879       -2.20730        0.16459
H         -8.46135        2.09602        0.09386
H         -6.00866        2.27146       -0.12174
