35
COMP27_240300.log	Energy: -1991329.3479352
C          2.93893        0.22769        0.07332
C          1.60899       -0.35593        0.20436
C          1.23354       -1.61550        0.65594
O          2.00708       -2.61777        1.08046
C         -0.18286       -1.77341        0.69401
Cl        -0.90516       -3.23648        1.25699
C         -0.89084       -0.68469        0.25184
S          0.19074        0.57189       -0.23517
C         -2.33144       -0.56105        0.15341
C         -2.97362        0.60284       -0.05772
C         -4.40344        0.80819       -0.18756
C         -5.46978       -0.05065       -0.31374
Cl        -5.38595       -1.78475       -0.37576
C         -6.74097        0.59562       -0.42244
O         -7.92105       -0.04158       -0.55917
C         -6.62598        1.95450       -0.37817
H         -7.42760        2.67551       -0.43633
S         -4.98773        2.44457       -0.20783
C          4.06704       -0.56579       -0.35611
N          4.04515       -1.87909       -0.58599
S          5.53930       -2.31744       -1.06144
N          6.27317       -0.87634       -1.00373
C          5.36189        0.00868       -0.59688
C          5.59020        1.39442       -0.40303
H          6.56255        1.82933       -0.59666
C          4.53762        2.13990        0.04430
C          4.74660        3.54427        0.26939
N          4.95352        4.67153        0.43559
C          3.22847        1.57011        0.29872
C          2.26078        2.47684        0.84609
N          1.54300        3.25806        1.31312
H          2.84548       -2.60113        0.57972
H         -2.87838       -1.48784        0.28232
H         -2.38461        1.51717       -0.12515
H         -7.76814       -0.99685       -0.55128
