56
COMP82_110003.log	Energy: -1776678.6348771
C         -1.29054        0.43893       -0.17545
C         -2.75448        0.46968       -0.23609
C         -3.58070        1.44212       -0.72386
F         -3.18295        2.59306       -1.26064
C         -4.95835        1.12205       -0.63578
F         -5.90113        1.95638       -1.07469
C         -5.21575       -0.09818       -0.07974
S         -3.71149       -0.86256        0.35413
C         -6.50293       -0.71897        0.14831
S         -8.01114        0.04448       -0.28389
C         -8.93901       -1.29353        0.28864
H        -10.01721       -1.29270        0.23127
C         -8.13626       -2.26785        0.78315
F         -8.54986       -3.42201        1.29748
C         -6.75530       -1.94197        0.70333
F         -5.80852       -2.77420        1.13861
C         -0.60770       -0.78161       -0.10294
C          0.77572       -0.83191       -0.04764
C          1.51826        0.35086       -0.07807
C          2.94630        0.64441        0.06012
C          3.04737        2.14979        0.08541
O          4.04232        2.82873        0.11139
N          1.72805        2.64934       -0.03961
C          1.34470        3.99662       -0.10555
O          0.21354        4.35151       -0.34154
O          2.35989        4.81509        0.13180
C          2.03883        6.20531        0.05273
C          0.81502        1.57044       -0.12005
C         -0.56548        1.63948       -0.17433
C          4.04848       -0.16174        0.10622
C          4.01487       -1.58949       -0.38533
O          3.09972       -2.17341       -0.90954
N          5.32039       -2.10623       -0.22639
C          5.76134       -3.38822       -0.58160
O          6.92692       -3.70868       -0.59248
O          4.75219       -4.19512       -0.87971
C          5.13566       -5.51513       -1.26883
C          6.16385       -1.11194        0.32725
C          7.49466       -1.23735        0.69461
C          8.10623       -0.14055        1.29722
H          9.14999       -0.21580        1.58678
C          7.40036        1.03454        1.53666
C          6.06839        1.14980        1.15751
C          5.43306        0.07629        0.52587
H         -1.15996       -1.71640       -0.11455
H          1.27188       -1.78838       -0.00874
H          2.98030        6.72224        0.23119
H          1.30090        6.47194        0.81258
H          1.64406        6.45110       -0.93538
H         -1.06266        2.59562       -0.21030
H          4.20084       -6.02511       -1.49588
H          5.66148       -6.01652       -0.45307
H          5.78158       -5.48330       -2.14900
H          8.03222       -2.15656        0.51552
H          7.89011        1.87541        2.01689
H          5.53560        2.07053        1.33419
