37
COMP56_000310.log	Energy: -1142840.4958907
C         -0.40380        0.36613       -0.15438
C          1.01853        0.00509       -0.17446
C          1.96971        0.85109        0.41687
C          3.30507        0.49574        0.37551
C          4.50274        1.23156        0.92835
H          4.60777        2.22666        0.47918
H          4.42626        1.37556        2.01305
C          5.64888        0.31908        0.55712
C          7.00689        0.46909        0.79662
C          7.88274       -0.51903        0.34820
H          8.94847       -0.41315        0.52737
C          7.40562       -1.64224       -0.33009
C          6.04405       -1.79677       -0.57296
C          5.17059       -0.80976       -0.12603
C          3.71177       -0.69959       -0.23849
C          2.77384       -1.54778       -0.81867
C          1.43264       -1.18966       -0.78437
C         -1.00111        1.60516       -0.28256
C         -0.29105        2.83073       -0.49374
N          0.29694        3.81578       -0.65773
N         -2.37028        1.63519       -0.22744
C         -2.83862        0.43467       -0.06345
S         -1.64421       -0.82110        0.05327
C         -4.25974        0.13677        0.02232
S         -5.45144        1.40406       -0.08061
C         -6.67080        0.21455        0.10155
H         -7.72272        0.46218        0.11205
C         -6.10324       -1.02541        0.22356
C         -6.85399       -2.23488        0.38895
N         -7.48449       -3.19757        0.51980
N         -4.73257       -1.06421        0.17747
H          1.65989        1.76708        0.90973
H          7.38616        1.34118        1.32204
H          8.10404       -2.40029       -0.67126
H          5.67467       -2.67135       -1.10110
H          3.07714       -2.47256       -1.29995
H          0.69709       -1.83437       -1.25742
