71
COMP96_000033.log	Energy: -1480007.5514691
C          0.63811        0.43192       -0.48395
C         -0.82272        0.51954       -0.75274
C         -1.68650       -0.30678       -0.02836
C         -3.03627       -0.29078       -0.32950
C         -4.16095       -1.09317        0.30749
C         -3.92541       -2.59580        0.09866
O         -4.54291       -3.31167       -0.64387
O         -2.89418       -3.00308        0.85454
C         -2.53456       -4.37894        0.71230
C         -4.29347       -0.81371        1.80887
O         -3.68782        0.02063        2.42734
O         -5.20904       -1.63386        2.34677
C         -5.44291       -1.45279        3.74458
C         -5.38084       -0.59699       -0.45713
C         -6.70712       -0.96880       -0.31412
C         -7.65733       -0.37097       -1.14171
H         -8.70276       -0.64705       -1.04415
C         -7.27899        0.57593       -2.09346
C         -5.94339        0.94241       -2.24028
C         -4.99568        0.34929       -1.41472
C         -3.54104        0.53068       -1.34099
C         -2.68186        1.33896       -2.07872
C         -1.32653        1.32573       -1.77988
C          1.20712       -0.86291       -0.60506
C          2.54580       -1.08900       -0.42840
C          3.07544       -2.46950       -0.56945
O          2.38445       -3.43903       -0.79768
N          4.45805       -2.60081       -0.41864
C          5.00829       -3.93122       -0.61138
O          5.36130       -4.34459       -1.67579
O          5.04204       -4.56257        0.54831
C          5.57515       -5.89090        0.49136
C          5.37436       -1.58989       -0.10961
O          6.55100       -1.84818        0.02323
C          4.80520       -0.22605        0.03732
C          5.64424        0.82406        0.33322
H          6.70550        0.63601        0.45320
C          5.11548        2.11698        0.47568
C          3.76458        2.34077        0.32658
C          3.25752        3.72347        0.49126
O          3.96605        4.68613        0.69559
N          1.87561        3.85691        0.40046
C          1.33109        5.17442        0.67840
O          1.13733        5.58353        1.78433
O          1.10793        5.80397       -0.46219
C          0.52587        7.10473       -0.32082
C          0.92834        2.85783        0.12986
O         -0.24575        3.15079        0.15310
C          1.47169        1.49441       -0.14588
C          2.87297        1.28123        0.01897
C          3.41546       -0.01588       -0.12574
H         -1.30830       -0.93835        0.76860
H         -1.68358       -4.52890        1.37534
H         -2.25821       -4.59391       -0.32230
H         -3.36861       -5.02158        1.00331
H         -6.17950       -2.20687        4.01864
H         -5.82930       -0.44947        3.93767
H         -4.51646       -1.59557        4.30514
H         -6.99613       -1.71063        0.42200
H         -8.03334        1.02968       -2.72922
H         -5.65144        1.67759       -2.98447
H         -3.05844        1.97431       -2.87449
H         -0.64643        1.95376       -2.34633
H          0.56576       -1.70008       -0.86104
H          5.53554       -6.26268        1.51377
H          6.60403       -5.86512        0.12659
H          4.96579       -6.51005       -0.17032
H          5.75700        2.96052        0.70674
H          0.42318        7.48878       -1.33434
H          1.17953        7.74634        0.27357
H         -0.44940        7.02420        0.16394
