36
COMP61_100001.log	Energy: -1222104.5778797
C          2.65669        0.55789       -0.16166
C          1.21911        0.47632       -0.10014
C          0.45913       -0.63121       -0.30942
F          0.99159       -1.79643       -0.65252
C         -0.96383       -0.43796       -0.19725
C         -2.00417       -1.36878       -0.33219
C         -1.80396       -2.83138       -0.62530
C         -3.28705       -0.85042       -0.17580
S         -4.75199       -1.80682       -0.30677
C         -5.73330       -0.41077        0.02100
H         -6.81093       -0.48013        0.05520
C         -4.99362        0.69794        0.21288
F         -5.54502        1.88885        0.47888
C         -3.56376        0.51096        0.11155
C         -2.52134        1.43819        0.25751
C         -2.71089        2.89832        0.57096
C         -1.24032        0.92183        0.09030
S          0.22094        1.88093        0.23825
C          3.61377       -0.37338        0.13173
C          3.80608       -1.70281        0.71103
O          3.04678       -2.56469        1.10035
N          5.22478       -1.80643        0.75704
H          5.68418       -2.63046        1.11189
C          5.85252       -0.66645        0.30395
H          6.93086       -0.58302        0.31209
C          4.90422        0.22172       -0.08750
C          4.71627        1.59487       -0.55774
O          5.48302        2.46731       -0.90082
N          3.30234        1.72866       -0.54221
H          2.84632        2.53092       -0.95143
H         -0.76185       -3.13025       -0.53650
H         -2.14120       -3.06787       -1.64171
H         -2.39204       -3.44357        0.06781
H         -3.75965        3.15900        0.69115
H         -2.29383        3.52045       -0.23024
H         -2.18589        3.16149        1.49724
