35
COMP41_200013.log	Energy: -1983137.0275430
C         -1.53441       -1.38584       -0.43975
C         -0.14094       -0.97764       -0.30090
C          0.89553       -1.64279        0.27924
Cl         0.75731       -3.17517        1.07320
C          2.15608       -0.94995        0.21504
C          3.39633       -1.34846        0.71305
H          3.50742       -2.29700        1.22777
C          4.46788       -0.49130        0.52210
S          6.11881       -0.75430        1.04449
C          6.61105        0.77396        0.37479
H          7.64012        1.09676        0.45156
C          5.59313        1.44222       -0.20739
Cl         5.76542        2.99213       -0.96247
C          4.32685        0.75085       -0.14862
C          3.08785        1.14957       -0.64366
H          2.97547        2.10096       -1.15287
C          2.01534        0.28979       -0.45580
S          0.37287        0.55619       -0.97793
C         -2.67944       -0.66065       -0.24662
C         -3.04015        0.68746        0.25906
O         -2.33611        1.56447        0.68072
N         -4.46784        0.71820        0.19461
C         -5.27456        1.80714        0.61445
O         -6.32301        1.67568        1.18316
O         -4.70700        2.95554        0.26630
C         -5.39371        4.12587        0.71579
C         -5.03826       -0.50657       -0.27231
O         -6.20632       -0.72669       -0.43455
C         -3.86624       -1.36899       -0.54298
C         -3.65870       -2.63934       -0.97590
H         -4.38548       -3.39053       -1.25270
S         -1.97026       -2.97491       -1.02289
H         -4.76650        4.96158        0.40959
H         -5.50829        4.10689        1.80175
H         -6.37907        4.18996        0.24883
