31
COMP17_140000.log	Energy: -1401160.5531806
C          3.57751       -0.70808       -0.28048
C          2.23978       -0.18875       -0.22026
C          1.80640        1.12586       -0.27559
O          2.49626        2.25989       -0.38670
C          0.38385        1.20074       -0.23289
F         -0.22742        2.38578       -0.27472
C         -0.27323        0.00482       -0.15551
S          0.88548       -1.29082       -0.12357
C         -1.69015       -0.29246       -0.07913
C         -2.66957        0.63281       -0.09422
C         -4.08612        0.33784       -0.00984
C         -4.74930       -0.85211        0.10527
F         -4.16041       -2.06219        0.16451
C         -6.16802       -0.76446        0.16467
O         -6.98165       -1.83884        0.27863
C         -6.59065        0.52927        0.09176
H         -7.60922        0.88681        0.11443
S         -5.26094        1.62114       -0.04666
C          4.07005       -1.86881       -0.74952
C          5.52466       -2.02476       -0.58422
C          6.14804       -1.00466        0.01174
H          7.19617       -0.84728        0.22155
S          4.94401        0.20974        0.47097
O          5.13964        1.45940       -0.28416
O          4.78154        0.28896        1.91424
H          3.46389        2.10586       -0.42501
H         -1.94903       -1.34367       -0.00105
H         -2.40964        1.68336       -0.17414
H         -6.43315       -2.63327        0.31590
H          3.46668       -2.62075       -1.24465
H          6.04216       -2.90288       -0.95362
