40
COMP73_000031.log	Energy: -1265477.2669911
C         -0.29569       -0.63707        0.83111
C         -1.47934        0.16201        0.43833
C         -2.58759       -0.52305       -0.05965
C         -3.73923        0.15995       -0.44867
C         -4.94032       -0.54978       -0.97810
O         -5.94478        0.00756       -1.35735
O         -4.78634       -1.88163       -0.98198
C         -5.90049       -2.62380       -1.47585
C         -3.78704        1.54745       -0.35261
H         -4.68605        2.06829       -0.66359
C         -2.68869        2.23987        0.13753
C         -1.54151        1.56263        0.54550
C         -0.40320        2.33363        1.13574
O          0.35096        1.91298        1.98170
O         -0.33699        3.57275        0.63404
C          0.74203        4.36535        1.12565
C          0.99868       -0.62844        0.36833
C          1.55004        0.29998       -0.64675
O          0.91288        1.20583       -1.15823
C          2.97019        0.05072       -0.99669
C          3.66608        0.76545       -1.92883
H          3.29347        1.58206       -2.53182
S          5.28710        0.21044       -2.06249
C          5.04747       -0.99342       -0.86011
H          5.84143       -1.66292       -0.55890
C          3.77087       -0.96632       -0.37817
C          3.23914       -1.87198        0.66531
O          3.90977       -2.73526        1.20200
C          1.81185       -1.63816        0.99287
C          1.12853       -2.37669        1.91278
H          1.52181       -3.18726        2.51073
S         -0.50125       -1.86674        2.03361
H         -2.54834       -1.60178       -0.16267
H         -5.62595       -3.67241       -1.36699
H         -6.08560       -2.38284       -2.52544
H         -6.79830       -2.39912       -0.89522
H         -2.71641        3.32055        0.21463
H          0.65697        5.32375        0.61487
H          1.69623        3.88778        0.89120
H          0.66269        4.49691        2.20753
