60
COMP71_300033.log	Energy: -2262411.1605207
C          0.52916       -1.98857       -0.64382
C         -0.78198       -1.37115       -0.46722
C         -1.16455       -0.14410       -0.93026
C         -0.29705        0.60508       -1.78157
N          0.43003        1.12578       -2.51961
C         -2.53770        0.18124       -0.59916
C         -3.26074        1.36082       -0.82923
C         -2.63639        2.64673       -1.26816
O         -3.20781        3.47192       -1.94555
O         -1.42423        2.78657       -0.75143
C         -0.66503        3.92653       -1.17553
C         -4.62656        1.35143       -0.55407
S         -5.73614        2.66358       -0.88458
C         -7.03808        1.75402       -0.21785
H         -8.04139        2.15963       -0.23166
C         -6.69001        0.52143        0.24256
C         -7.69062       -0.40223        0.67568
N         -8.54928       -1.12823        0.95717
C         -5.26995        0.25914        0.07998
C         -4.51289       -0.86208        0.44749
C         -5.07794       -1.89699        1.36677
O         -5.78176       -1.63890        2.31026
O         -4.66542       -3.12866        1.04636
C         -5.11463       -4.17034        1.92146
C         -3.17697       -0.90728        0.04700
S         -2.06572       -2.23060        0.32684
C          1.77149       -1.46511       -0.36675
C          2.05103       -0.18501        0.33738
O          1.20233        0.45399        0.92318
C          3.48909        0.20811        0.35154
C          3.95738        1.42022        0.79536
C          3.19116        2.66296        1.10826
O          2.29613        3.10505        0.43641
O          3.68701        3.25224        2.20214
C          3.05939        4.48518        2.56687
S          5.67493        1.44339        0.86310
C          5.78872       -0.17426        0.28708
C          7.13142       -0.82410        0.21996
O          7.37318       -1.94458        0.58175
O          8.04256        0.04831       -0.23367
C          9.38514       -0.44378       -0.27582
C          4.54646       -0.70637        0.03418
C          4.27269       -2.01923       -0.61684
O          5.13901       -2.74562       -1.05724
C          2.83111       -2.34238       -0.76004
C          2.38000       -3.50885       -1.30807
H          2.98692       -4.32504       -1.67587
S          0.67242       -3.55782       -1.37164
H          0.29102        3.83372       -0.66473
H         -1.18653        4.84452       -0.89609
H         -0.52520        3.89142       -2.25776
H         -4.69111       -5.08863        1.51801
H         -6.20564       -4.21190        1.92200
H         -4.75782       -3.99155        2.93797
H          3.57355        4.81785        3.46710
H          1.99816        4.32184        2.76602
H          3.16802        5.22012        1.76581
H          9.98807        0.38727       -0.63856
H          9.45208       -1.29533       -0.95632
H          9.70976       -0.75254        0.72059
