56
COMP82_340002.log	Energy: -1595486.1176328
C         -0.75955       -0.49345       -0.10835
C         -2.21835       -0.64008       -0.14365
C         -2.94987       -1.78942       -0.36829
C         -2.41717       -3.07860       -0.65300
N         -2.06117       -4.15912       -0.88603
C         -4.36235       -1.56741       -0.34718
O         -5.29494       -2.52330       -0.54937
C         -4.70387       -0.26003       -0.10716
S         -3.26374        0.70377        0.10454
C         -6.03736        0.29857       -0.02032
S         -7.47906       -0.66743       -0.22037
C         -8.50281        0.67677        0.01904
H         -9.57766        0.57001       -0.01610
C         -7.79257        1.82708        0.24306
C         -8.33960        3.12156        0.47700
N         -8.69846        4.20719        0.67500
C         -6.37716        1.60750        0.22006
O         -5.44454        2.56549        0.41060
C         -0.13909        0.64575       -0.63341
C          1.24715        0.78855       -0.63474
C          2.04868       -0.22324       -0.10637
C          3.50309       -0.46814        0.01133
C          3.62648       -1.89907        0.52132
O          4.59308       -2.61613        0.66685
N          2.33809       -2.27853        0.82688
O          2.00986       -3.52695        1.26062
C          1.91888       -4.44418        0.16119
C          1.39166       -1.36336        0.39649
C          0.02484       -1.52170        0.43327
C          4.57729        0.35118       -0.15963
C          4.43979        1.85213       -0.38950
O          3.47520        2.53510       -0.65951
N          5.70027        2.36569       -0.16813
O          6.02713        3.63349       -0.56865
C          5.75173        4.56713        0.47651
C          6.66956        1.36808       -0.10244
C          8.03844        1.54039       -0.08477
C          8.82146        0.38735       -0.02979
H          9.90331        0.47961       -0.01669
C          8.23102       -0.87306       -0.00207
C          6.84462       -1.02275       -0.02306
C          6.03228        0.11243       -0.06398
H         -4.87047       -3.37813       -0.70850
H         -5.86930        3.42008        0.57060
H         -0.74398        1.42654       -1.08381
H          1.69797        1.67401       -1.05458
H          1.62722       -5.39171        0.61447
H          2.89044       -4.54455       -0.32995
H          1.15065       -4.12252       -0.54997
H         -0.40858       -2.41081        0.87533
H          6.09450        5.52781        0.08937
H          6.30505        4.30640        1.38495
H          4.67833        4.60644        0.68004
H          8.47179        2.53252       -0.13301
H          8.85531       -1.76000        0.03041
H          6.39953       -2.00518       -0.00704
