29
COMP22_040100.log	Energy: -1374782.5600087
C         -1.78179        0.29841        0.00171
C         -0.39035       -0.14346        0.00346
C          0.06521       -1.44155        0.00887
H         -0.59408       -2.29948        0.01181
C          1.47419       -1.53151        0.00891
O          2.17791       -2.69606        0.01312
C          2.11736       -0.31309        0.00329
S          0.94930        0.97463       -0.00150
C          3.54420       -0.07013        0.00048
S          4.72332       -1.35989       -0.00432
C          6.03061       -0.24480       -0.00895
H          7.04992       -0.60550       -0.01251
C          5.60933        1.05036       -0.00610
H          6.27429        1.90768       -0.00682
C          4.18909        1.14675       -0.00086
O          3.48651        2.31035        0.00445
C         -2.89723       -0.62722       -0.00095
N         -2.81396       -1.95498       -0.00228
S         -4.33540       -2.53410       -0.00592
N         -5.16689       -1.13638       -0.00507
C         -4.26617       -0.15740       -0.00262
C         -4.57397        1.23193       -0.00158
H         -5.59491        1.59059       -0.00270
C         -3.51457        2.07436        0.00074
F         -3.68265        3.39495        0.00190
C         -2.15764        1.61820        0.00230
F         -1.24292        2.59166        0.00425
H          1.56353       -3.43853        0.02092
H          4.09676        3.05560       -0.01953
