40
COMP92_010001.log	Energy: -1411381.5008365
C          0.56874       -0.25947        0.33577
C         -0.89985       -0.29163        0.51381
C         -1.57567       -0.78129        1.59272
H         -1.10908       -1.13791        2.50227
C         -2.97963       -0.72695        1.39655
F         -3.83544       -1.11447        2.34034
C         -3.37791       -0.24136        0.18300
S         -1.97720        0.17261       -0.76057
C         -4.73384       -0.09788       -0.31401
S         -5.29986        1.32281       -1.14451
C         -6.87812        0.65886       -1.33309
H         -7.64404        1.22376       -1.84576
C         -6.98960       -0.57944       -0.77780
H         -7.88823       -1.18258       -0.77400
C         -5.75891       -0.99717       -0.20574
F         -5.61918       -2.18811        0.37464
C          1.20421       -1.51578        0.17552
C          2.55574       -1.61536       -0.03011
C          3.17364       -2.95960       -0.19653
O          2.55145       -3.99871       -0.14384
N          4.54411       -2.95294       -0.42265
H          4.97720       -3.86198       -0.53889
C          5.39874       -1.85996       -0.50667
O          6.58512       -2.00900       -0.70838
C          4.75134       -0.53128       -0.33180
C          5.51843        0.60853       -0.39787
H          6.58403        0.51520       -0.57761
C          4.91667        1.86775       -0.23178
C          3.56356        1.97023       -0.00065
C          2.96871        3.31932        0.17768
O          3.59970        4.35339        0.11123
N          1.61016        3.32115        0.44562
H          1.19209        4.22945        0.61191
C          0.74038        2.24207        0.57116
O         -0.41128        2.43585        0.89290
C          1.33873        0.89750        0.30354
C          2.74279        0.81326        0.07064
C          3.35546       -0.44973       -0.09940
H          0.60720       -2.42148        0.20409
H          5.50377        2.77860       -0.28109
