40
COMP72_040000.log	Energy: -1670781.1679997
C         -0.25832       -1.03831       -0.36656
C          1.00983       -0.32622       -0.35589
C          1.31611        0.92470       -0.82571
H          0.57558        1.59834       -1.23262
C          2.69077        1.23164       -0.69976
O          3.26122        2.40235       -1.09228
C          3.45119        0.22730       -0.14075
S          2.43458       -1.13069        0.24823
C          4.87104        0.24415        0.13759
S          5.88586        1.62591       -0.19820
C          7.28124        0.81879        0.39712
H          8.23960        1.31925        0.39236
C          7.00710       -0.44180        0.83419
H          7.74730       -1.12001        1.24545
C          5.62950       -0.76661        0.68436
O          5.06383       -1.95226        1.03460
C         -1.57740       -0.61711       -0.27023
C         -2.07312        0.77149       -0.12225
O         -1.35584        1.76181       -0.18930
C         -3.53147        0.90287        0.10275
C         -4.15992        2.10277        0.32237
C         -3.57945        3.48005        0.40662
S         -5.86173        1.85093        0.51253
C         -5.74837        0.13980        0.29299
C         -6.96311       -0.73313        0.33719
C         -4.44021       -0.21367        0.08634
C         -3.97147       -1.59114       -0.13065
O         -4.71448       -2.56067       -0.16972
C         -2.50149       -1.72326       -0.27959
C         -1.89577       -2.93597       -0.39746
H         -2.38494       -3.89980       -0.42223
S         -0.19662       -2.77854       -0.50698
H          2.56763        3.03297       -1.31728
H          5.73884       -2.53846        1.39392
H         -2.79443        3.51619        1.16642
H         -4.34586        4.22091        0.64995
H         -3.11005        3.75288       -0.54268
H         -7.86469       -0.15436        0.55506
H         -6.84527       -1.50908        1.09848
H         -7.09505       -1.24842       -0.61845
