36
COMP67_340001.log	Energy: -1259103.4167622
C         -3.28600        0.59137       -0.06223
C         -1.96448        0.05921        0.01077
C         -1.54310       -1.26849       -0.09540
O         -2.24175       -2.36859       -0.24158
C         -0.11027       -1.37273       -0.10241
C          0.53090       -2.63994       -0.20377
N          1.07945       -3.65875       -0.28490
C          0.54597       -0.15981        0.00427
S         -0.59011        1.13295        0.13043
C          1.95442        0.18249        0.05071
C          2.97546       -0.69006       -0.06939
C          4.38295       -0.34567       -0.03534
C          5.03159        0.87412        0.09817
C          4.41777        2.14797        0.24196
N          3.99222        3.22217        0.36190
C          6.46126        0.75999        0.07587
O          7.31645        1.79446        0.18630
C          6.87577       -0.53290       -0.07321
H          7.89473       -0.88716       -0.12013
S          5.54437       -1.61089       -0.18627
C         -4.52467       -0.01500        0.04254
C         -5.15634       -1.26809        0.34543
O         -4.70162       -2.39940        0.56194
N         -6.51788       -0.95636        0.35480
H         -7.22474       -1.65416        0.52831
C         -6.74918        0.38801        0.10126
H         -7.75188        0.79027        0.10083
C         -5.54704        0.98162       -0.09803
C         -4.89995        2.27652       -0.32167
O         -5.31875        3.39114       -0.52259
N         -3.51601        1.94284       -0.25932
H         -2.81212        2.62676       -0.49692
H         -3.19878       -2.34681        0.08198
H          2.16180        1.23972        0.18791
H          2.76719       -1.74650       -0.20790
H          6.82626        2.62300        0.28228
