44
COMP46_000002.log	Energy: -958074.5114234
C          1.52231        1.39954        0.10351
C          0.06819        1.25264       -0.02266
C         -0.54328        0.03761        0.32275
C         -1.91254       -0.09110        0.19201
C         -2.76946       -1.30939        0.49627
C         -2.36927       -2.49905       -0.39315
C         -2.67707       -1.69880        1.98106
C         -4.15487       -0.78680        0.14461
C         -5.37286       -1.44584        0.21644
C         -6.53261       -0.76707       -0.15848
H         -7.49273       -1.27172       -0.10535
C         -6.47192        0.55543       -0.60018
C         -5.25141        1.22137       -0.67432
C         -4.09672        0.54233       -0.29893
C         -2.69511        0.97588       -0.26913
C         -2.10034        2.18623       -0.61056
C         -0.72281        2.31561       -0.48851
C          2.52676        0.46547        0.10735
C          2.66717       -1.00714       -0.04166
O          1.85638       -1.89626       -0.14735
N          4.06096       -1.20395       -0.04616
O          4.59622       -2.45234        0.00988
C          4.89406       -2.92871       -1.30418
C          4.84693       -0.05549        0.15686
O          6.04907       -0.02643        0.22117
C          3.83252        1.02346        0.23199
C          3.85427        2.37285        0.33981
H          4.70307        3.03486        0.43986
S          2.24016        2.98664        0.29976
H          0.06047       -0.79339        0.67013
H         -1.33173       -2.79095       -0.19876
H         -2.46107       -2.24212       -1.45276
H         -3.01343       -3.36195       -0.19092
H         -1.65870       -2.01532        2.23111
H         -3.35449       -2.53097        2.20168
H         -2.94658       -0.85597        2.62485
H         -5.42853       -2.47584        0.55974
H         -7.38459        1.06871       -0.88785
H         -5.20601        2.25099       -1.01871
H         -2.69360        3.01888       -0.97703
H         -0.25358        3.25107       -0.78055
H          5.32820       -3.91733       -1.15124
H          5.62030       -2.27290       -1.79393
H          3.97873       -3.00853       -1.89846
