50
COMP87_420001.log	Energy: -1961484.7738762
C         -0.77842        0.55882       -0.11483
C          0.66978        0.79897       -0.18554
C          1.36923        1.96759       -0.32684
Cl         0.66919        3.54910       -0.52227
C          2.78770        1.81214       -0.36861
O          3.66200        2.82984       -0.51516
C          3.18010        0.49985       -0.25123
S          1.78173       -0.52429       -0.08945
C          4.50854       -0.08157       -0.23149
C          5.66764        0.59411       -0.38330
C          6.97837       -0.02986       -0.28764
C          7.37190       -1.05672        0.53819
O          6.61361       -1.69451        1.45537
C          8.75006       -1.39830        0.37147
Cl         9.50812       -2.65741        1.28242
C          9.38612       -0.63305       -0.55501
H         10.41996       -0.70051       -0.86102
S          8.32330        0.52986       -1.24498
C         -1.35161       -0.51104       -0.81062
C         -2.71480       -0.78232       -0.73962
C         -3.54551        0.02260        0.04082
C         -4.99818        0.08280        0.31040
C         -5.17462        1.30282        1.20548
O         -6.17344        1.76710        1.71712
N         -3.91698        1.81823        1.40286
H         -3.76414        2.63578        1.97189
C         -2.94569        1.10707        0.71605
C         -1.59469        1.38547        0.66835
C         -6.03207       -0.72454       -0.06302
C         -5.82684       -2.08307       -0.72746
O         -4.80305       -2.66295       -1.03073
N         -7.07735       -2.61632       -0.90124
H         -7.21128       -3.52420       -1.31726
C         -8.07841       -1.75955       -0.46413
C         -9.44346       -1.96548       -0.54124
C        -10.27727       -0.95206       -0.07140
H        -11.35405       -1.08417       -0.11738
C         -9.74010        0.22279        0.44587
C         -8.36106        0.41318        0.52020
C         -7.49817       -0.59016        0.07188
H          3.17175        3.66274       -0.57185
H          4.54277       -1.16491       -0.11993
H          5.63808        1.66235       -0.57722
H          5.81297       -1.16969        1.60334
H         -0.72469       -1.13770       -1.43709
H         -3.12543       -1.62064       -1.27932
H         -1.17662        2.21280        1.23092
H         -9.84811       -2.88158       -0.95980
H        -10.40075        1.00615        0.80270
H         -7.95903        1.32350        0.93581
