34
COMP57_400000.log	Energy: -1548695.4763237
C         -2.04481       -0.19998       -0.16926
C         -0.63406        0.13401       -0.14352
C         -0.05541        1.37405       -0.23210
H         -0.62365        2.29150       -0.35281
C          1.36205        1.32899       -0.18123
O          2.16720        2.42457       -0.25700
C          1.87859        0.05650       -0.05659
S          0.57482       -1.09656        0.01614
C          3.24930       -0.40416        0.02010
C          4.34380        0.38144       -0.02739
C          5.71695       -0.06248        0.05379
C          6.84470        0.72530       -0.04852
O          6.88745        2.06493       -0.24790
C          8.06791        0.00273        0.07351
H          9.03980        0.47578        0.01339
C          7.85732       -1.32596        0.26654
H          8.60101       -2.10113        0.38872
S          6.18127       -1.72757        0.30523
C         -2.64032       -1.39040       -0.50290
H         -2.10474       -2.27727       -0.82135
N         -4.00216       -1.42341       -0.43944
C         -4.47298       -0.26793       -0.06464
S         -3.27470        0.95108        0.25705
C         -5.88923        0.02232        0.08697
S         -7.09599       -1.19253       -0.21411
C         -8.30120       -0.02914        0.18502
H         -9.35360       -0.27349        0.16098
C         -7.71849        1.15967        0.50831
H         -8.25177        2.05674        0.79734
N         -6.35108        1.18550        0.45191
H          1.61848        3.21478       -0.31921
H          3.37754       -1.48053        0.12544
H          4.18935        1.45224       -0.13345
H          5.99190        2.41013       -0.34465
