34
COMP57_200400.log	Energy: -2125479.0018359
C         -1.87054       -0.01558        0.35353
C         -0.51113        0.49134        0.33861
C         -0.08104        1.77535        0.53105
H         -0.73878        2.60456        0.76125
C          1.32948        1.89549        0.42986
Cl         2.12550        3.42050        0.64963
C          1.99789        0.72270        0.17391
S          0.83789       -0.56600       -0.00074
C          3.42767        0.53218        0.05128
C          4.02778       -0.65423       -0.15410
C          5.45027       -0.91618       -0.28687
C          6.56743       -0.11243       -0.32118
Cl         6.55410        1.61983       -0.20876
C          7.79706       -0.81286       -0.46905
H          8.75942       -0.31911       -0.51504
C          7.61209       -2.15861       -0.54774
H          8.36556       -2.92518       -0.66170
S          5.94949       -2.57971       -0.44372
C         -2.34730       -1.19654        0.88645
O         -1.64159       -2.15066        1.51710
N         -3.68155       -1.41514        0.76652
C         -4.25186       -0.41519        0.15330
S         -3.20091        0.87040       -0.33483
C         -5.67827       -0.35470       -0.11748
S         -6.73973       -1.63701        0.36018
C         -8.04812       -0.74395       -0.32221
H         -9.06110       -1.11999       -0.30302
C         -7.58209        0.43332       -0.84551
O         -8.28847        1.40165       -1.46210
N         -6.24417        0.64924       -0.72820
H          4.01203        1.44047        0.14137
H          3.40375       -1.54456       -0.22907
H         -0.73943       -1.83770        1.67504
H         -9.21780        1.14564       -1.48929
