52
COMP82_310000.log	Energy: -1531331.9351564
C         -0.52161       -0.53818       -0.05986
C         -1.97498       -0.72170       -0.14393
C         -2.68741       -1.86186       -0.46020
C         -2.12460       -3.12626       -0.80093
N         -1.66991       -4.15962       -1.06456
C         -4.09106       -1.62707       -0.45206
F         -4.96108       -2.59330       -0.74203
C         -4.46748       -0.35297       -0.14125
S         -3.04260        0.60053        0.16991
C         -5.81099        0.18306       -0.06027
S         -7.23328       -0.77572       -0.37212
C         -8.27862        0.54700       -0.07871
H         -9.34997        0.43037       -0.15944
C         -7.59494        1.68838        0.24592
C         -8.19958        2.94671        0.53821
N         -8.69270        3.96806        0.77469
C         -6.18794        1.45921        0.25133
F         -5.31983        2.42640        0.54028
C          0.06421        0.67507       -0.43607
C          1.44118        0.87059       -0.36705
C          2.26840       -0.15957        0.07703
C          3.72625       -0.35538        0.20836
C          3.88081       -1.79911        0.65921
O          4.88726       -2.42994        0.91983
N          2.61164       -2.31709        0.78672
C          2.33624       -3.67863        1.17924
C          1.65578       -1.38211        0.42577
C          0.29137       -1.58850        0.38911
C          4.78059        0.48902        0.02651
C          4.61629        1.99396       -0.14969
O          3.60270        2.66798       -0.15253
N          5.87750        2.52292       -0.26041
C          6.14007        3.93095       -0.42563
C          6.84440        1.52476       -0.20802
C          8.21055        1.69519       -0.34138
C          9.01164        0.55371       -0.29751
H         10.08786        0.65533       -0.39965
C          8.44350       -0.70497       -0.13334
C          7.06428       -0.85982        0.00521
C          6.23780        0.26496       -0.01816
H         -0.55728        1.48016       -0.81605
H          1.86475        1.82018       -0.65323
H          3.29445       -4.17594        1.33107
H          1.77163       -4.19585        0.39629
H          1.76333       -3.70307        2.11212
H         -0.13216       -2.53532        0.70178
H          5.18093        4.44901       -0.40492
H          6.63729        4.12129       -1.38285
H          6.77261        4.30136        0.38773
H          8.64353        2.67988       -0.48280
H          9.07806       -1.58491       -0.10826
H          6.63701       -1.84018        0.14501
