44
COMP97_110001.log	Energy: -1584434.4624624
C         -1.60415        0.02576        0.05493
C         -0.17037       -0.25026        0.21342
C          0.42780       -1.15594        1.03789
F         -0.22616       -2.01772        1.80490
C          1.84109       -1.09817        1.02256
F          2.57414       -1.91940        1.77575
C          2.35335       -0.13930        0.18985
S          1.04311        0.70258       -0.58452
C          3.72560        0.21800       -0.11364
C          4.80651       -0.37068        0.43359
C          6.18186       -0.01992        0.13564
C          6.70250        0.91677       -0.71583
F          5.97568        1.73494       -1.47938
C          8.12281        0.95891       -0.73043
F          8.78600        1.81355       -1.50393
C          8.69449        0.05641        0.10765
H          9.74737       -0.11019        0.27819
S          7.48659       -0.85883        0.92812
C         -2.02034        1.36765        0.25646
C         -3.34100        1.72454        0.21753
C         -3.71863        3.14494        0.45593
O         -2.91545        4.02987        0.66028
N         -5.08273        3.40246        0.42968
H         -5.35527        4.36505        0.59303
C         -6.12399        2.50628        0.21548
O         -7.27822        2.87746        0.22727
C         -5.71245        1.09627       -0.02394
C         -6.67589        0.14065       -0.24915
H         -7.72012        0.43392       -0.24614
C         -6.29593       -1.19188       -0.48013
C         -4.96634       -1.54985       -0.48214
C         -4.61323       -2.96724       -0.74543
O         -5.42759       -3.84617       -0.93640
N         -3.25408       -3.22473       -0.77459
H         -2.98631       -4.17483       -1.00498
C         -2.19021       -2.34556       -0.59540
O         -1.05905       -2.74581       -0.76282
C         -2.56392       -0.94344       -0.22991
C         -3.94641       -0.59022       -0.24547
C         -4.33912        0.74904       -0.01627
H          3.85929        1.01799       -0.83493
H          4.67033       -1.16971        1.15552
H         -1.28277        2.13301        0.47654
H         -7.03876       -1.96114       -0.66206
