36
COMP29_000220.log	Energy: -1900267.7889334
C         -1.91732       -0.04604       -0.07740
C         -0.44953       -0.04743       -0.10056
C          0.40079        0.82488        0.53861
C          1.75626        0.54589        0.26825
C          1.92108       -0.54111       -0.55487
S          0.43609       -1.24234       -1.02378
C          3.34219       -0.80665       -0.72435
C          4.05984        0.11686       -0.01208
C          3.12832        1.10087        0.69638
O          3.41515        2.36784        0.20890
C          2.51666        3.39043        0.59767
O          3.28978        1.14787        2.09259
C          3.09497       -0.07299        2.77404
C          5.46047       -0.05479       -0.12305
C          5.76749       -1.12034       -0.92386
H          6.74699       -1.49509       -1.18752
S          4.35629       -1.91402       -1.55289
C         -2.62862       -1.25642        0.23813
N         -2.06630       -2.43282        0.51410
S         -3.28272       -3.47074        0.80199
N         -4.56152       -2.48612        0.60006
C         -4.06257       -1.28898        0.29104
C         -4.81606       -0.11333        0.03772
H         -5.89759       -0.13387        0.08462
C         -4.13528        1.02698       -0.26106
Cl        -5.05498        2.46632       -0.57760
C         -2.69070        1.06736       -0.33106
Cl        -1.94655        2.56751       -0.78879
H          0.04716        1.61860        1.18497
H          2.97832        4.32983        0.28983
H          2.36323        3.39862        1.68160
H          1.55085        3.28363        0.08669
H          3.80078       -0.84100        2.43162
H          2.07246       -0.45278        2.65000
H          3.27579        0.13499        3.82990
H          6.20057        0.57134        0.35922
