27
COMP42_000001.log	Energy: -1215592.7346413
C         -1.53354       -0.46882       -0.01107
C         -0.16761        0.01050        0.03649
C          0.25369        1.31354        0.15241
H         -0.44090        2.14275        0.22241
C          1.66312        1.43729        0.18470
H          2.17828        2.38434        0.29755
C          2.32074        0.23605        0.09186
S          1.19254       -1.07378       -0.05803
C          3.75202       -0.02030        0.09659
S          4.87287        1.18799       -0.45728
C          6.22033        0.16799       -0.12544
H          7.22517        0.51895       -0.31582
C          5.83021       -1.04201        0.36708
H          6.52416       -1.82770        0.64039
C          4.41751       -1.15111        0.49574
H          3.91286       -2.02496        0.89278
C         -2.71884        0.22511        0.01830
C         -3.17418        1.63475        0.10000
O         -2.55409        2.67209        0.18154
N         -4.57191        1.55139        0.06466
H         -5.16058        2.37044        0.11618
C         -5.08667        0.25187       -0.02212
O         -6.25546       -0.04426       -0.05949
C         -3.87188       -0.60370       -0.05332
C         -3.60527       -1.92867       -0.13673
H         -4.29058       -2.76207       -0.20182
S         -1.89456       -2.18040       -0.12516
