33
COMP17_340000.log	Energy: -1392383.7706007
C          3.65271       -0.78175       -0.25041
C          2.33059       -0.21397       -0.22202
C          1.94322        1.11184       -0.33150
O          2.68718        2.20192       -0.48422
C          0.51837        1.26535       -0.29849
C         -0.09208        2.54659       -0.41125
N         -0.61301        3.57904       -0.50226
C         -0.16704        0.06964       -0.16888
S          0.93898       -1.25292       -0.08333
C         -1.58323       -0.23281       -0.08200
C         -2.57804        0.67517       -0.03043
C         -3.99174        0.36598        0.06076
C         -4.67536       -0.84164        0.04541
C         -4.10275       -2.13581       -0.08587
N         -3.71244       -3.22529       -0.18735
C         -6.09699       -0.68941        0.16912
O         -6.97927       -1.70749        0.18044
C         -6.47107        0.61937        0.27436
H         -7.47515        1.00262        0.37856
S         -5.11090        1.66737        0.22367
C          4.11056       -1.96798       -0.68628
C          5.55705       -2.17226       -0.49186
C          6.20468       -1.16223        0.09407
H          7.25401       -1.03597        0.31907
S          5.03734        0.10562        0.50321
O          5.28848        1.32604       -0.28245
O          4.85189        0.22754        1.94012
H          3.65017        2.01072       -0.49729
H         -1.82001       -1.29242       -0.04723
H         -2.34219        1.73479       -0.05069
H         -6.51342       -2.55117        0.09633
H          3.48976       -2.71063       -1.17419
H          6.04892       -3.07579       -0.83354
