30
COMP62_040001.log	Energy: -1094818.0551443
C         -2.03371        0.43990       -0.00165
C         -0.66550        0.01599       -0.00117
C         -0.24336       -1.29422       -0.00136
H         -0.93852       -2.13145       -0.00171
C          1.16220       -1.39784       -0.00134
O          1.86028       -2.56216       -0.00178
C          1.82277       -0.18166       -0.00103
S          0.67052        1.12311       -0.00038
C          3.24964        0.04399       -0.00031
S          4.41632       -1.25673        0.00154
C          5.73105       -0.15197        0.00263
H          6.74710       -0.52188        0.00378
C          5.32326        1.14796        0.00144
H          5.99663        1.99841        0.00132
C          3.90482        1.25646       -0.00021
O          3.20949        2.42344       -0.00232
C         -3.17461       -0.32811       -0.00126
C         -3.63272       -1.70312       -0.00006
O         -3.05580       -2.78186       -0.00069
N         -5.04147       -1.55359        0.00219
H         -5.66021       -2.34911        0.00397
C         -5.43309       -0.22784        0.00239
H         -6.47973        0.04292        0.00433
C         -4.31520        0.54164       -0.00005
C         -3.84149        1.92811        0.00025
O         -4.40604        2.99906        0.00184
N         -2.42946        1.76868       -0.00212
H         -1.81301        2.56738        0.00062
H          1.24379       -3.30386       -0.00068
H          3.82335        3.16637        0.00353
