50
COMP94_400003.log	Energy: -1618571.9283156
C         -0.50866       -0.38271        0.00167
C         -1.77146       -1.12898       -0.04550
C         -2.88238       -1.06633        0.77708
O         -3.14210       -0.15580        1.72331
C         -3.76127       -2.16615        0.55934
S         -5.29139       -2.62681        1.22048
C         -5.34915       -3.99924        0.14600
H         -6.19006       -4.67892        0.18838
C         -4.26064       -4.08937       -0.67303
O         -3.98895       -5.01980       -1.61811
C         -3.33702       -3.03216       -0.42082
S         -1.83409       -2.54138       -1.11150
C          0.66177       -1.20163        0.07350
C          1.92230       -0.68410        0.13086
C          3.07857       -1.61254        0.24651
O          2.97460       -2.81847        0.28879
N          4.33382       -1.00264        0.30637
C          5.47474       -1.88949        0.46239
O          5.91613       -2.20468        1.52723
O          5.90259       -2.26083       -0.73005
C          7.02279       -3.15391       -0.71588
C          4.61220        0.36440        0.22268
O          5.75665        0.76176        0.24244
C          3.43098        1.25991        0.10952
C          3.62817        2.62059        0.01970
H          4.63865        3.01317        0.04324
C          2.52144        3.46755       -0.11825
C          1.24104        2.95198       -0.14251
C          0.11911        3.89114       -0.33845
O          0.23409        5.09200       -0.45506
N         -1.13982        3.29070       -0.38787
C         -2.27131        4.18737       -0.57746
O         -2.72132        4.44796       -1.65266
O         -2.67096        4.63566        0.59784
C         -3.77598        5.54708        0.55028
C         -1.44759        1.95635       -0.15619
O         -2.63335        1.65747       -0.07774
C         -0.32176        1.00803       -0.03425
C          1.00138        1.55991       -0.02276
C          2.12830        0.71555        0.07867
H         -2.98894        0.71727        1.30557
H         -4.71431       -5.65382       -1.66291
H          0.54996       -2.27889        0.12748
H          7.23224       -3.36898       -1.76216
H          6.76593       -4.06696       -0.17494
H          7.87902       -2.67204       -0.23946
H          2.64785        4.53986       -0.22043
H         -3.98143        5.80356        1.58794
H         -4.64022        5.06356        0.09050
H         -3.50158        6.43511       -0.02278
