28
COMP74_200001.log	Energy: -2055296.2116753
C          0.33810        1.29114       -0.35538
C         -1.01352        0.76558       -0.15761
C         -1.71481        0.70684        1.01219
Cl        -1.12192        1.27883        2.52912
C         -2.98954        0.09761        0.85084
S         -4.32016       -0.26749        1.89382
C         -5.20326       -0.94814        0.56209
H         -6.19060       -1.35975        0.71640
C         -4.51407       -0.89470       -0.60919
Cl        -5.10622       -1.48698       -2.12265
C         -3.23184       -0.29315       -0.45037
S         -1.90701        0.07492       -1.49417
C          1.53577        0.62703       -0.25866
C          1.69102       -0.81609        0.07346
O          0.75243       -1.56135        0.28161
C          3.10086       -1.27372        0.12523
C          3.48127       -2.55262        0.41478
H          2.83182       -3.38658        0.64331
S          5.19067       -2.72058        0.38119
C          5.41595       -1.06613       -0.02417
H          6.40111       -0.64375       -0.16688
C          4.22157       -0.41338       -0.12909
C          4.07050        1.02078       -0.46428
O          5.01336        1.75906       -0.68258
C          2.66028        1.48253       -0.50987
C          2.29299        2.76706       -0.79183
H          2.95700        3.59145       -1.01445
S          0.59307        2.96013       -0.75642
