34
COMP37_440000.log	Energy: -1324431.8038677
C         -3.26620        0.13086       -0.04070
C         -1.84923       -0.22047        0.07777
C         -1.30464       -1.37087        0.59372
O         -1.92100       -2.43854        1.16407
C          0.11921       -1.39691        0.56308
O          0.81475       -2.45379        1.03896
C          0.67592       -0.27189        0.01237
S         -0.57704        0.84052       -0.46601
C          2.06831        0.07143       -0.20267
C          3.11762       -0.72771        0.08730
C          4.50494       -0.33069       -0.08152
C          5.05525        0.91748        0.04480
O          4.42997        2.08530        0.36727
C          6.47023        0.95356       -0.15434
O          7.18421        2.09964       -0.06209
C          6.98697       -0.27453       -0.42894
H          8.02020       -0.52059       -0.62327
S          5.75777       -1.49275       -0.43313
C         -3.74007        1.42676        0.20140
F         -2.89181        2.39627        0.54474
C         -5.08800        1.74301        0.09629
F         -5.47223        2.99429        0.34303
C         -6.02824        0.78441       -0.24244
H         -7.07894        1.03483       -0.31751
C         -5.58322       -0.50326       -0.48451
F         -6.44444       -1.46229       -0.82223
C         -4.23475       -0.81272       -0.39573
F         -3.86703       -2.08362       -0.67242
H         -2.74988       -2.61995        0.69855
H          0.16496       -3.10692        1.34121
H          2.24972        1.03638       -0.67413
H          2.93182       -1.72306        0.48116
H          3.59290        1.87982        0.80827
H          6.56912        2.80191        0.19283
