47
COMP41_000033.log	Energy: -1692262.5517103
C         -1.59459       -1.58436       -0.21353
C         -0.30940       -0.90764       -0.14511
C          0.89728       -1.52444       -0.02564
H          1.03410       -2.59307        0.05684
C          2.00125       -0.60856       -0.01036
C          3.37606       -0.90470        0.10363
C          3.80716       -2.32842        0.22817
O          3.07799       -3.29495        0.17987
O          5.12850       -2.43945        0.40570
C          5.63618       -3.76845        0.52501
C          4.27816        0.16486        0.08778
S          6.02468        0.09092        0.21550
C          6.13926        1.81648        0.07616
H          7.11525        2.28375        0.10443
C          4.95136        2.43999       -0.05789
H          4.82800        3.50631       -0.16444
C          3.84265        1.51525       -0.05386
C          2.47008        1.80765       -0.15741
C          2.02967        3.22749       -0.31190
O          2.75062        4.17423       -0.53385
O          0.70477        3.34639       -0.17685
C          0.15936        4.65458       -0.34488
C          1.56364        0.73893       -0.12454
S         -0.18017        0.83657       -0.22343
C         -2.88688       -1.12648       -0.13740
C         -3.57929        0.17253        0.02229
O         -3.13290        1.28929        0.06866
N         -4.96803       -0.16023        0.05280
C         -6.02329        0.78208        0.14593
O         -7.05004        0.69252       -0.46944
O         -5.70957        1.73687        1.01404
C         -6.67636        2.78356        1.12529
C         -5.21575       -1.55732       -0.11227
O         -6.29040       -2.09142       -0.10309
C         -3.86540       -2.14716       -0.23288
C         -3.35778       -3.39490       -0.38757
H         -3.87972       -4.33658       -0.48559
S         -1.63572       -3.32312       -0.42681
H          6.71098       -3.65534        0.65811
H          5.41532       -4.34108       -0.37845
H          5.18987       -4.26837        1.38735
H         -0.91507        4.53404       -0.21583
H          0.39084        5.03752       -1.34127
H          0.56777        5.33404        0.40653
H         -6.25576        3.48945        1.83977
H         -7.62616        2.38470        1.48835
H         -6.83176        3.26269        0.15601
