48
COMP91_200001.log	Energy: -1960813.8274236
C          1.36344       -0.19605       -0.14059
C         -0.11593       -0.14847       -0.10196
C         -0.90050       -0.09650        0.99755
Cl        -0.17985        0.01673        2.57664
C         -2.32621       -0.11270        0.72425
C         -3.42220       -0.05775        1.59906
C         -3.29140        0.04195        3.09789
C         -4.67888       -0.09772        0.99704
S         -6.18935       -0.04098        1.89151
C         -7.10223       -0.13002        0.42563
H         -8.18300       -0.12554        0.45149
C         -6.32620       -0.20038       -0.67603
Cl        -7.05399       -0.29455       -2.25424
C         -4.89863       -0.18692       -0.40358
C         -3.80121       -0.24330       -1.27808
C         -3.93198       -0.33879       -2.77718
C         -2.54631       -0.20145       -0.67554
S         -1.03825       -0.25533       -1.57118
C          1.96141       -1.47799       -0.10705
C          3.32436       -1.62823       -0.11682
C          3.91090       -2.99570       -0.07554
O          3.25036       -4.01156       -0.04191
N          5.29953       -3.04096       -0.07873
H          5.71146       -3.96669       -0.04941
C          6.19673       -1.98003       -0.11444
O          7.39381       -2.17359       -0.10985
C          5.57918       -0.62664       -0.15795
C          6.38817        0.48515       -0.19295
H          7.46467        0.35169       -0.18998
C          5.81541        1.76863       -0.22988
C          4.44792        1.92259       -0.23202
C          3.88065        3.29497       -0.26797
O          4.55186        4.30499       -0.29709
N          2.49651        3.35064       -0.26706
H          2.08964        4.27856       -0.29830
C          1.57841        2.30567       -0.24390
O          0.39169        2.54710       -0.26869
C          2.16841        0.93252       -0.19435
C          3.58564        0.79515       -0.19728
C          4.16799       -0.49267       -0.15804
H         -2.77812       -0.83003        3.51262
H         -4.27036        0.10687        3.57881
H         -2.72373        0.92939        3.38891
H         -4.43738        0.53899       -3.18901
H         -4.50792       -1.21978       -3.07144
H         -2.95353       -0.41073       -3.25865
H          1.33256       -2.36154       -0.06698
H          6.43697        2.65736       -0.25512
