64
COMP91_300032.log	Energy: -1879926.9852840
C         -1.32598       -0.14288       -0.18500
C          0.15540       -0.11546       -0.12931
C          0.90255        0.19879        0.96739
C          0.22931        0.52746        2.18343
N         -0.41071        0.73652        3.12795
C          2.33063        0.04444        0.74012
C          3.41860        0.25086        1.60216
C          3.31975        0.91715        2.93457
O          4.04531        0.65684        3.86803
O          2.39833        1.87343        2.93721
C          2.15684        2.51500        4.19430
C          4.68744       -0.12894        1.16318
S          6.16179       -0.00883        2.09952
C          7.08508       -0.54565        0.74813
H          8.16242       -0.61550        0.82367
C          6.34859       -0.84804       -0.35526
C          6.99104       -1.18087       -1.58750
N          7.56907       -1.38366       -2.57155
C          4.92661       -0.64206       -0.13488
C          3.84439       -0.83214       -1.00385
C          4.01796       -1.56442       -2.29738
O          4.68457       -2.56144       -2.41265
O          3.30505       -1.01092       -3.28402
C          3.37242       -1.69427       -4.54207
C          2.57461       -0.46553       -0.56076
S          1.09496       -0.63433       -1.48280
C         -1.94747       -1.38145        0.09477
C         -3.31428       -1.49763        0.11697
C         -3.92150       -2.82493        0.41507
O         -3.27233       -3.81806        0.64731
N         -5.32051       -2.84145        0.42140
O         -5.90247       -4.07060        0.56820
C         -6.15742       -4.35314        1.94663
C         -6.19846       -1.77111        0.20535
O         -7.39724       -1.91331        0.27357
C         -5.54069       -0.46890       -0.09372
C         -6.32226        0.63823       -0.32852
H         -7.40147        0.53720       -0.28947
C         -5.72047        1.87847       -0.60979
C         -4.34995        1.99583       -0.65322
C         -3.75769        3.32752       -0.94372
O         -4.41093        4.31994       -1.16940
N         -2.35974        3.35143       -0.95702
O         -1.78323        4.58128       -1.11729
C         -1.56137        4.86859       -2.50036
C         -1.47022        2.28460       -0.78596
O         -0.27965        2.44506       -0.92543
C         -2.10409        0.97361       -0.45191
C         -3.51951        0.87156       -0.41625
C         -4.12899       -0.37100       -0.13262
H          1.37286        3.24343        3.99761
H          3.06836        3.00081        4.54779
H          1.81727        1.78137        4.92776
H          2.75630       -1.10775       -5.22152
H          2.98276       -2.70966       -4.44187
H          4.40664       -1.73523       -4.88936
H         -1.34101       -2.25635        0.30579
H         -6.61817       -5.34113        1.94216
H         -6.85314       -3.62026        2.36555
H         -5.22138       -4.38076        2.51183
H         -6.32362        2.76108       -0.79315
H         -1.10176        5.85711       -2.50321
H         -2.51076        4.89801       -3.04270
H         -0.87440        4.13853       -2.93792
