32
COMP67_200001.log	Energy: -1625783.1692356
C         -3.10396       -0.60569        0.03597
C         -1.79825       -0.00417        0.01375
C         -1.53740        1.34374       -0.03507
H         -2.31692        2.09978       -0.06579
C         -0.14921        1.60649       -0.04284
Cl         0.47379        3.22230       -0.10156
C          0.65743        0.48785       -0.00478
S         -0.33259       -0.93902        0.04974
C          2.10398        0.45273       -0.00845
C          2.84196       -0.67297       -0.03749
C          4.28947       -0.78230       -0.03997
C          5.31221        0.13335        0.07658
Cl         5.10450        1.84242        0.28935
C          6.61737       -0.42946        0.02157
H          7.52221        0.15971        0.09946
C          6.58529       -1.78095       -0.13694
H          7.42328       -2.45992       -0.20936
S          4.97602       -2.37449       -0.21974
C         -4.33136        0.00480       -0.00487
C         -4.96789        1.30903       -0.08455
O         -4.53432        2.44757       -0.13996
N         -6.34544        0.97500       -0.08421
H         -7.06394        1.68041       -0.13174
C         -6.55715       -0.38751       -0.01216
H         -7.55828       -0.79591       -0.00367
C         -5.34917       -1.00485        0.03800
C         -4.70092       -2.31592        0.11309
O         -5.12090       -3.44925        0.17142
N         -3.32047       -1.97348        0.10451
H         -2.60722       -2.68509        0.15708
H          2.57924        1.42621        0.00826
H          2.32457       -1.63150       -0.07162
