40
COMP62_000003.log	Energy: -1286344.2298629
C         -0.61795        0.67983        0.20454
C          0.62439       -0.03999        0.32810
C          0.71383       -1.36370        0.71470
H         -0.14986       -1.93921        1.02585
C          2.02215       -1.87849        0.63399
H          2.29091       -2.88679        0.92660
C          2.93576       -0.96157        0.16649
S          2.18315        0.55785       -0.16591
C          4.36370       -1.13707       -0.04030
S          5.03025       -2.71319       -0.34705
C          6.62725       -2.07724       -0.44393
H          7.46192       -2.73814       -0.63302
C          6.64752       -0.72587       -0.26199
H          7.55452       -0.13385       -0.28323
C          5.35240       -0.18594       -0.02993
H          5.16032        0.86347        0.16395
C         -1.88084        0.14638        0.15676
C         -2.58311       -1.12936        0.20115
O         -2.21667       -2.25567        0.44896
N         -3.95221       -0.74389       -0.10326
C         -5.10146       -1.54475       -0.18415
O         -6.19098       -1.07879       -0.42152
O         -4.83008       -2.82302        0.02213
C         -5.96033       -3.69570       -0.04573
C         -4.04981        0.63405       -0.31500
H         -5.00415        1.06575       -0.57674
C         -2.82752        1.17551       -0.15094
C         -2.12900        2.44729       -0.27242
O         -2.52300        3.56838       -0.45381
N         -0.73686        2.06791       -0.05110
C          0.22636        3.02786        0.33517
O          0.99407        2.87694        1.25282
O          0.15416        4.09084       -0.44930
C          0.98915        5.18509       -0.06442
H         -5.55924       -4.69190        0.13276
H         -6.42881       -3.63738       -1.03056
H         -6.69308       -3.43029        0.71939
H          0.74274        5.98862       -0.75621
H          2.04197        4.90745       -0.15246
H          0.77702        5.48226        0.96478
