40
COMP72_310000.log	Energy: -1816634.2406467
C          0.68998        1.24687        0.55686
C         -0.56887        0.51175        0.61627
C         -0.83378       -0.65154        1.30181
C          0.11479       -1.36561        2.08888
N          0.88403       -1.93776        2.73929
C         -2.18661       -1.05319        1.14356
F         -2.66212       -2.15407        1.72184
C         -2.95428       -0.22690        0.37182
S         -1.97575        1.09425       -0.19939
C         -4.35646       -0.37304        0.03845
S         -5.32634       -1.71672        0.57933
C         -6.72115       -1.12410       -0.21552
H         -7.65670       -1.66263       -0.16258
C         -6.48397        0.05227       -0.87570
C         -7.45656        0.78052       -1.62280
N         -8.24784        1.37138       -2.22858
C         -5.12834        0.46275       -0.71879
F         -4.66338        1.57912       -1.27558
C          1.94562        0.80774        0.20340
C          2.28797       -0.54008       -0.33774
O          1.43897       -1.38025       -0.58716
C          3.72764       -0.76240       -0.56388
C          4.25794       -1.96672       -0.95303
C          3.56196       -3.26424       -1.21842
S          5.97487       -1.82933       -1.10778
C          5.99828       -0.16043       -0.65658
C          7.27983        0.60979       -0.59822
C          4.72266        0.26706       -0.39088
C          4.37682        1.63309        0.03591
O          5.18839        2.53730        0.15412
C          2.93439        1.83658        0.33265
C          2.41709        3.02469        0.76065
H          2.96226        3.94382        0.92689
S          0.73238        2.91715        1.03493
H          2.92972       -3.53290       -0.36771
H          4.27818       -4.06964       -1.40109
H          2.90209       -3.17373       -2.08613
H          8.13938       -0.02663       -0.82432
H          7.41341        1.05072        0.39337
H          7.25668        1.43939       -1.31062
