31
COMP22_340000.log	Energy: -1366004.2273110
C         -2.25100       -0.83178       -0.46348
C         -0.95731       -0.14780       -0.38239
C         -0.67848        1.19418       -0.52415
C         -1.59864        2.23335       -0.84403
N         -2.24300        3.15501       -1.13062
C          0.71670        1.48598       -0.40885
O          1.25320        2.71945       -0.52352
C          1.49178        0.37699       -0.17663
S          0.48436       -1.04405       -0.09140
C          2.92978        0.32921       -0.01090
S          3.93356        1.75750       -0.06838
C          5.35892        0.85727        0.19707
H          6.32293        1.34304        0.24721
C          5.10101       -0.48265        0.32486
C          6.06497       -1.50762        0.54796
N          6.77981       -2.40381        0.72838
C          3.70565       -0.78305        0.20594
O          3.17301       -2.02160        0.29307
C         -3.40322       -0.31749        0.22153
N         -3.43849        0.76318        1.00015
S         -4.96881        0.90037        1.52604
N         -5.64254       -0.39601        0.81443
C         -4.67054       -0.99271        0.12042
C         -4.79380       -2.18837       -0.64311
H         -5.75434       -2.68584       -0.71153
C         -3.67623       -2.66588       -1.26178
H         -3.73123       -3.57613       -1.85008
C         -2.41889       -1.99337       -1.17520
H         -1.57363       -2.40846       -1.71622
H          0.55672        3.37190       -0.68698
H          3.86938       -2.67457        0.45108
