36
COMP57_230300.log	Energy: -2262537.2322747
C         -2.07832       -0.21347        0.32554
C         -0.73186        0.33303        0.37108
C         -0.33892        1.62197        0.68007
C         -1.23266        2.66498        1.06559
N         -1.96234        3.51080        1.37481
C          1.07572        1.79245        0.60513
Cl         1.83930        3.29551        0.96167
C          1.75523        0.65305        0.24961
S          0.63736       -0.64294       -0.02616
C          3.19029        0.49807        0.11004
C          3.81522       -0.68735       -0.00307
C          5.24183       -0.91463       -0.16262
C          6.29583       -0.08645       -0.46804
Cl         6.18171        1.60481       -0.78622
C          7.55700       -0.76353       -0.53260
C          8.79969       -0.12640       -0.83156
N          9.81406        0.37875       -1.07278
C          7.43982       -2.10338       -0.27609
H          8.23517       -2.83496       -0.26074
S          5.82315       -2.54556        0.04254
C         -2.50301       -1.48984        0.65143
C         -1.65742       -2.53028        1.15619
N         -0.96487       -3.36723        1.55900
N         -3.83455       -1.74438        0.48911
C         -4.44195       -0.68418        0.04217
S         -3.44142        0.70715       -0.21652
C         -5.87195       -0.63997       -0.22502
S         -6.88605       -2.02332        0.06488
C         -8.22157       -1.10458       -0.48564
H         -9.22179       -1.51190       -0.52791
C         -7.81384        0.15406       -0.84208
C         -8.69479        1.16500       -1.34793
N         -9.43015        1.96080       -1.75638
N         -6.47585        0.41243       -0.69167
H          3.75038        1.42581        0.11823
H          3.22052       -1.59922        0.04417
