52
COMP97_100002.log	Energy: -1603540.9692119
C          0.94606       -0.23260        0.37438
C         -0.51224       -0.37446        0.57067
C         -1.14113       -0.94758        1.63817
H         -0.64162       -1.30235        2.53092
C         -2.54356       -0.99221        1.45363
F         -3.35009       -1.49954        2.39472
C         -3.00288       -0.49342        0.26196
S         -1.64095        0.06143       -0.66740
C         -4.34596       -0.38182       -0.27620
C         -5.46200       -0.80770        0.34645
C         -6.80706       -0.68669       -0.18504
C         -7.26959       -0.14762       -1.35906
F         -6.46386        0.39760       -2.28067
C         -8.67314       -0.19842       -1.54753
H         -9.17301        0.18983       -2.42553
C         -9.29116       -0.79177       -0.48776
H        -10.34869       -0.96834       -0.35162
S         -8.16893       -1.28120        0.72223
C          1.67461       -1.43741        0.20996
C          3.02379       -1.43407       -0.03389
C          3.73105       -2.73368       -0.20235
O          3.19115       -3.80992       -0.08962
N          5.09618       -2.62399       -0.49244
O          5.73996       -3.79486       -0.78654
C          6.32052       -4.36797        0.38664
C          5.86311       -1.45753       -0.61150
O          7.05124       -1.50418       -0.83398
C          5.10954       -0.18712       -0.42695
C          5.77934        1.00953       -0.53663
H          6.84164        1.00009       -0.75511
C          5.08467        2.21941       -0.36647
C          3.73758        2.21800       -0.08137
C          3.05415        3.52461        0.09997
O          3.60149        4.59530       -0.03568
N          1.70539        3.42662        0.44418
O          1.10429        4.59864        0.81572
C          0.43545        5.19954       -0.29407
C          0.92986        2.26929        0.62596
O         -0.21291        2.35912        1.00602
C          1.62439        0.98019        0.31847
C          3.01942        1.00122        0.03767
C          3.72296       -0.21099       -0.14468
H         -4.42868        0.08806       -1.25080
H         -5.37841       -1.27739        1.32127
H          1.15102       -2.38611        0.26367
H          6.79847       -5.28290        0.03574
H          5.54603       -4.61074        1.12004
H          7.07136       -3.69490        0.81074
H          5.59395        3.17290       -0.45502
H         -0.00996        6.10733        0.11365
H         -0.34979        4.53889       -0.67355
H          1.15194        5.45588       -1.08003
