52
COMP97_220002.log	Energy: -2632594.7757373
C          1.62727       -0.10823        0.23678
C          0.20435       -0.06635        0.64041
C         -0.29283        0.03869        1.90345
Cl         0.70089        0.22476        3.30047
C         -1.71960        0.00577        1.94547
Cl        -2.61035        0.12856        3.41747
C         -2.30021       -0.13197        0.70976
S         -1.06959       -0.23333       -0.51528
C         -3.71869       -0.19596        0.41987
C         -4.24920       -0.24317       -0.81464
C         -5.65968       -0.31296       -1.16057
C         -6.79382       -0.58455       -0.43090
Cl        -6.82725       -0.97099        1.25072
C         -7.99057       -0.54813       -1.21418
Cl        -9.56190       -0.84932       -0.56535
C         -7.76364       -0.25549       -2.52266
H         -8.49658       -0.16823       -3.31129
S         -6.09098       -0.01791       -2.82191
C          2.21939       -1.38666        0.10978
C          3.54202       -1.52921       -0.22517
C          4.11419       -2.89892       -0.34589
O          3.47713       -3.90864       -0.15411
N          5.47057       -2.93993       -0.68890
O          5.98779       -4.18290       -0.93181
C          6.54843       -4.74446        0.25709
C          6.34055       -1.86285       -0.90186
O          7.50957       -2.03632       -1.15878
C          5.71791       -0.51656       -0.77207
C          6.49411        0.60092       -0.97373
H          7.54281        0.47467       -1.22002
C          5.92542        1.88177       -0.85633
C          4.59441        2.02862       -0.53864
C          4.04237        3.40308       -0.41875
O          4.69068        4.40677       -0.60915
N          2.68916        3.45586       -0.07973
O          2.17941        4.70442        0.14859
C          1.64129        5.26666       -1.05017
C          1.79259        2.39368        0.10779
O          0.62204        2.61308        0.31214
C          2.39401        1.02700        0.01007
C          3.76927        0.89567       -0.32349
C          4.34669       -0.38877       -0.44407
H         -4.35835       -0.19150        1.29453
H         -3.57979       -0.21228       -1.67405
H          1.62201       -2.27483        0.28793
H          6.92853       -5.71800       -0.05345
H          5.77726       -4.87244        1.02236
H          7.37141       -4.12378        0.62317
H          6.52280        2.77378       -1.01079
H          1.26741        6.24540       -0.74865
H          0.81652        4.65366       -1.42462
H          2.42446        5.38355       -1.80503
