56
COMP87_100002.log	Energy: -1558450.1941078
C          0.46456        0.41201        0.18831
C          1.92305        0.50330        0.30727
C          2.65361        1.44844        0.98000
H          2.22944        2.26214        1.55489
C          4.04248        1.21535        0.87850
F          4.92740        2.02322        1.47822
C          4.41109        0.11484        0.14586
S          2.97031       -0.65666       -0.44959
C          5.71674       -0.43454       -0.16439
C          6.89013        0.10409        0.22157
C          8.19759       -0.44800       -0.08038
C          8.56509       -1.57622       -0.76943
F          7.67908       -2.41736       -1.31997
C          9.95965       -1.80871       -0.86827
H         10.38995       -2.65957       -1.38047
C         10.66802       -0.83016       -0.23718
H         11.74140       -0.74236       -0.14672
S          9.64052        0.35770        0.46707
C         -0.17477       -0.81435       -0.02513
C         -1.55990       -0.91589       -0.12903
C         -2.35115        0.22628       -0.00535
C         -3.79596        0.52536       -0.10045
C         -3.89314        2.04485       -0.03382
O         -4.83849        2.79486       -0.16261
N         -2.61251        2.47235        0.22740
O         -2.26586        3.78678        0.31682
C         -2.17470        4.37652       -0.98555
C         -1.67684        1.44921        0.18675
C         -0.31047        1.57835        0.28854
C         -4.89237       -0.28275       -0.14673
C         -4.81308       -1.78998        0.06367
O         -3.86432       -2.54280        0.12691
N         -6.11787       -2.19627        0.24416
O         -6.46414       -3.51857        0.18150
C         -6.37903       -4.11122        1.47836
C         -7.03231       -1.19811       -0.07563
C         -8.40165       -1.33108       -0.18305
C         -9.12373       -0.18977       -0.53057
H        -10.20319       -0.25274       -0.62989
C         -8.47357        1.01920       -0.76099
C         -7.08744        1.12855       -0.64878
C         -6.33554        0.00714       -0.29179
H          5.71945       -1.34895       -0.74905
H          6.88642        1.01965        0.80449
H          0.41547       -1.72328       -0.09135
H         -2.01999       -1.87775       -0.29115
H         -1.82726        5.39493       -0.80836
H         -3.15648        4.39209       -1.46546
H         -1.45059        3.83409       -1.60322
H          0.13966        2.55578        0.41866
H         -6.70042       -5.14387        1.33547
H         -7.04629       -3.60118        2.18133
H         -5.34853       -4.08625        1.84247
H         -8.87769       -2.29101       -0.02045
H         -9.04900        1.89655       -1.03799
H         -6.59717        2.07145       -0.83285
