29
COMP12_440000.log	Energy: -1322477.4555336
C         -2.55062       -0.71991       -0.24657
C         -1.25510       -0.11217       -0.17536
C         -0.91001        1.22295       -0.24121
O         -1.65923        2.32971       -0.37307
C          0.49701        1.42985       -0.18540
O          1.03554        2.66876       -0.23635
C          1.23052        0.27629       -0.09110
S          0.17525       -1.11578       -0.05717
C          2.66782        0.15428       -0.01192
S          3.73072        1.54472       -0.00640
C          5.13711        0.54413        0.10408
H          6.12219        0.98856        0.14056
C          4.80893       -0.77440        0.13461
O          5.60596       -1.87784        0.21560
C          3.40232       -1.00071        0.06881
O          2.86157       -2.24140        0.08562
C         -2.95824       -1.93597       -0.65831
C         -4.40766       -2.15836       -0.55019
C         -5.11538       -1.13745       -0.05654
H         -6.17875       -1.02675        0.09794
S         -4.00034        0.16417        0.37981
O         -3.91744        0.34268        1.82183
O         -4.22171        1.35923       -0.45662
H         -2.61607        2.13137       -0.47132
H          0.30229        3.29963       -0.29820
H          6.53113       -1.61299        0.26593
H          3.58446       -2.88076        0.15756
H         -2.29197       -2.68293       -1.07318
H         -4.86100       -3.08624       -0.88070
