31
COMP22_030400.log	Energy: -1366009.1269740
C         -1.91023        0.30471       -0.11381
C         -0.51414       -0.13950       -0.07682
C         -0.06028       -1.42466        0.09784
H         -0.71599       -2.27324        0.22602
C          1.35544       -1.52357        0.10882
C          2.02906       -2.76861        0.30751
N          2.55653       -3.78898        0.46685
C          1.99054       -0.30617       -0.05613
S          0.83439        0.95849       -0.23791
C          3.41907       -0.02668       -0.11181
S          4.50580       -1.07305       -0.95827
C          5.86233       -0.08721       -0.58026
H          6.84990       -0.37280       -0.91502
C          5.51389        1.00308        0.15400
H          6.21036        1.75252        0.50752
C          4.11181        1.04492        0.42521
C          3.51660        2.08377        1.20511
N          3.06777        2.94402        1.84025
C         -3.01172       -0.61997        0.03644
N         -2.92241       -1.93483        0.20679
S         -4.44181       -2.51519        0.32436
N         -5.27786       -1.12503        0.16425
C         -4.38119       -0.15786        0.01273
C         -4.69023        1.22162       -0.16127
H         -5.72316        1.55245       -0.17597
C         -3.64294        2.07026       -0.30480
O         -3.73864        3.41569       -0.48062
C         -2.26731        1.62252       -0.28513
O         -1.32129        2.56466       -0.44531
H         -4.66209        3.69434       -0.46573
H         -1.74615        3.43366       -0.51298
