46
COMP67_420003.log	Energy: -2006043.6157107
C         -2.37185       -0.66273       -0.14127
C         -0.99737       -0.91856        0.23854
C         -0.48109       -1.87150        1.08143
Cl        -1.40025       -3.04962        1.95966
C          0.92658       -1.78994        1.24413
O          1.67049       -2.59863        2.02483
C          1.48355       -0.75787        0.52123
S          0.26475        0.10083       -0.35933
C          2.89175       -0.42585        0.49071
C          3.42529        0.68225       -0.06278
C          4.85013        0.94610       -0.15333
C          5.87048        0.03806       -0.32400
O          5.75575       -1.29784       -0.46206
C          7.15477        0.66323       -0.38830
Cl         8.61314       -0.23948       -0.59967
C          7.09936        2.01748       -0.27920
H          7.92823        2.71020       -0.29408
S          5.48125        2.57072       -0.10066
C         -3.02386        0.52959       -0.19520
C         -2.82904        1.95330        0.08906
O         -1.85097        2.59247        0.37662
N         -4.17594        2.48448       -0.08393
C         -4.62984        3.80744        0.04108
O         -5.78722        4.10585       -0.13485
O         -3.65048        4.63361        0.36663
C         -4.04083        6.00129        0.51740
C         -5.07595        1.46877       -0.41607
H         -6.12154        1.70931       -0.54139
C         -4.40564        0.30308       -0.49961
C         -4.62535       -1.12883       -0.68419
O         -5.59823       -1.75773       -1.00423
N         -3.30187       -1.68496       -0.43216
C         -2.90917       -2.97595       -0.85796
O         -1.84061       -3.21360       -1.36199
O         -3.87022       -3.85134       -0.61517
C         -3.61355       -5.17465       -1.09056
H          1.10361       -3.27854        2.41492
H          3.52895       -1.13723        1.01255
H          2.76332        1.44077       -0.48153
H          4.82645       -1.51253       -0.63019
H         -3.12680        6.52827        0.78525
H         -4.78968        6.09828        1.30641
H         -4.44960        6.38684       -0.41917
H         -4.51123       -5.74222       -0.85151
H         -2.74126       -5.59507       -0.58511
H         -3.43901       -5.16528       -2.16864
