60
COMP82_440003.log	Energy: -1716418.4201603
C          1.28702        0.43378       -0.19490
C          2.74573        0.48260       -0.23127
C          3.54962        1.54858       -0.54175
O          3.21667        2.81917       -0.89568
C          4.93862        1.24219       -0.51409
O          5.88970        2.16330       -0.79968
C          5.20771       -0.06006       -0.18289
S          3.71759       -0.92841        0.09972
C          6.50388       -0.68942       -0.05656
S          8.00136        0.18447       -0.29923
C          8.95040       -1.22546        0.02916
H         10.03016       -1.17863       -0.00479
C          8.16278       -2.29759        0.30533
O          8.50385       -3.58234        0.61239
C          6.76907       -1.99667        0.25716
O          5.81475       -2.92674        0.50174
C          0.58634       -0.73399       -0.53306
C         -0.79671       -0.78582       -0.48842
C         -1.53203        0.35013       -0.13070
C         -2.96249        0.65178       -0.07368
C         -3.05157        2.13379        0.20147
O         -4.03132        2.82793        0.29762
N         -1.72143        2.59029        0.38602
C         -1.31587        3.91700        0.58222
O         -0.17932        4.29567        0.40602
O         -2.31275        4.68487        0.99376
C         -1.97290        6.05908        1.18978
C         -0.81845        1.53144        0.13937
C          0.56330        1.58390        0.15983
C         -4.06885       -0.14909       -0.14189
C         -3.97874       -1.64068        0.07708
O         -3.00401       -2.29781        0.34331
N         -5.30104       -2.13897        0.02908
C         -5.70072       -3.46732        0.22611
O         -6.85387       -3.79654        0.38059
O         -4.67221       -4.30393        0.20141
C         -5.00824       -5.67367        0.42702
C         -6.20415       -1.07758       -0.22018
C         -7.57516       -1.15771       -0.40699
C         -8.25473        0.01559       -0.72665
H         -9.32990       -0.02406       -0.87308
C         -7.57691        1.22202       -0.87011
C         -6.20245        1.29036       -0.67358
C         -5.49541        0.13627       -0.32246
H          2.26581        2.89064       -1.05527
H          5.43921        2.98916       -1.02794
H          9.46309       -3.67244        0.62609
H          6.25948       -3.76073        0.70905
H          1.13698       -1.61619       -0.84398
H         -1.30146       -1.70754       -0.73026
H         -2.90038        6.53831        1.49851
H         -1.60164        6.49845        0.26134
H         -1.21020        6.15635        1.96555
H          1.06286        2.48393        0.48753
H         -4.06068       -6.20797        0.38056
H         -5.69389       -6.03220       -0.34398
H         -5.47264       -5.79762        1.40787
H         -8.09160       -2.10048       -0.30396
H         -8.12058        2.12367       -1.13308
H         -5.68723        2.23162       -0.77766
