36
COMP67_440001.log	Energy: -1237753.9385164
C         -3.07205        0.54474       -0.01155
C         -1.79821       -0.07955       -0.09169
C         -1.50002       -1.40565       -0.38361
O         -2.27219       -2.44704       -0.64988
C         -0.09166       -1.63480       -0.47075
O          0.40026       -2.85824       -0.74608
C          0.67845       -0.52469       -0.25065
S         -0.32346        0.85921        0.09900
C          2.12285       -0.49429       -0.26312
C          2.88785        0.60458       -0.09505
C          4.33559        0.59949       -0.04432
C          5.17239       -0.40571        0.36985
O          4.84456       -1.63673        0.84774
C          6.55962       -0.06726        0.31025
O          7.53126       -0.92988        0.68421
C          6.76551        1.19788       -0.14676
H          7.71355        1.69493       -0.28878
S          5.27406        1.99842       -0.49798
C         -4.34673        0.00649        0.08387
C         -5.04419       -1.23241        0.25035
O         -4.66221       -2.41440        0.28428
N         -6.37821       -0.84380        0.38588
H         -7.11988       -1.51529        0.51030
C         -6.53078        0.53498        0.33714
H         -7.50212        0.99239        0.45591
C         -5.30152        1.07445        0.14822
C         -4.57525        2.34497        0.06715
O         -4.92458        3.50098        0.04964
N         -3.21736        1.92065       -0.00152
H         -2.47734        2.58254       -0.18556
H         -3.21386       -2.42142       -0.26726
H         -0.36377       -3.44818       -0.85131
H          2.58393       -1.45628       -0.47667
H          2.40588        1.57566        0.01910
H          3.92683       -1.62787        1.15552
H          7.09827       -1.73337        1.00652
