41
COMP41_000031.log	Energy: -1549319.1602879
C         -2.63305       -0.91860       -0.00121
C         -1.24234       -0.49298       -0.00095
C         -0.16253       -1.32010        0.00018
H         -0.21617       -2.39940        0.00161
C          1.08797       -0.61692        0.00082
C          2.39015       -1.15986        0.00155
C          2.56226       -2.64250        0.00362
O          1.66657       -3.45863        0.01345
O          3.85163       -3.00007       -0.00651
C          4.11141       -4.40360       -0.00410
C          3.46899       -0.26830        0.00098
S          5.17692       -0.66160        0.00333
C          5.59627        1.02137        0.00235
H          6.64144        1.30321        0.00330
C          4.53665        1.85516        0.00044
H          4.60530        2.93167       -0.00120
C          3.27927        1.14486       -0.00054
C          1.97822        1.68366       -0.00159
C          1.79647        3.16709       -0.00532
O          2.68288        3.99190       -0.02297
O          0.50294        3.50436        0.01355
C          0.20735        4.90063        0.00851
C          0.89610        0.79191       -0.00041
S         -0.80465        1.20214       -0.00152
C         -3.81037       -0.21472       -0.00011
C         -4.25678        1.20548        0.00115
O         -3.62533        2.23578        0.00200
N         -5.65551        1.12825        0.00135
H         -6.23881        1.95273        0.00151
C         -6.18005       -0.17017        0.00037
O         -7.35096       -0.45931       -0.00033
C         -4.97169       -1.03451       -0.00068
C         -4.71392       -2.36452       -0.00281
H         -5.40837       -3.19322       -0.00348
S         -3.00921       -2.63204       -0.00368
H          5.19632       -4.49768       -0.01165
H          3.67638       -4.87092       -0.89022
H          3.68873       -4.86583        0.89058
H         -0.87967        4.96369        0.01964
H          0.61601        5.36982       -0.88910
H          0.63449        5.37974        0.89221
