39
COMP45_000013.log	Energy: -989951.4465781
C          0.71487       -1.65544       -0.06836
C         -0.70802       -1.29785       -0.00679
C         -1.09780        0.02913       -0.19948
C         -2.45409        0.32422       -0.13966
N         -3.08225        1.54387       -0.29149
H         -2.61173        2.42227       -0.43106
C         -4.44625        1.37856       -0.14813
C         -5.46699        2.32698       -0.21268
C         -6.76795        1.88112       -0.03218
H         -7.58276        2.59754       -0.07584
C         -7.05357        0.52723        0.20600
C         -6.03433       -0.41015        0.26894
C         -4.71477        0.01260        0.09179
C         -3.43543       -0.66264        0.09762
C         -3.03015       -1.98457        0.28863
C         -1.68274       -2.29205        0.23958
C          1.86119       -0.89419       -0.02475
C          2.23493        0.53300        0.12381
O          1.55148        1.51728        0.26290
N          3.66129        0.54134        0.10941
C          4.46600        1.69930        0.26347
O          5.47023        1.72616        0.91981
O          3.95745        2.70950       -0.43320
C          4.65087        3.94984       -0.28173
C          4.23160       -0.75980       -0.02384
O          5.40313       -1.01387       -0.09125
C          3.05888       -1.65340       -0.10787
C          2.87201       -2.98911       -0.23102
H          3.60992       -3.77518       -0.30834
S          1.18387       -3.33516       -0.24791
H         -0.36182        0.80640       -0.36644
H         -5.25334        3.37540       -0.39678
H         -8.08406        0.21533        0.34301
H         -6.25571       -1.45730        0.45415
H         -3.76035       -2.76430        0.48269
H         -1.37670       -3.31936        0.41255
H          4.07823        4.67154       -0.86220
H          5.66923        3.86355       -0.66720
H          4.68604        4.24101        0.77045
