30
COMP42_200000.log	Energy: -1817032.3484420
C         -2.06101        0.83481       -0.06558
C         -0.62836        1.07022        0.03194
C          0.07163        2.22794        0.30373
Cl        -0.63871        3.76799        0.66388
C          1.47932        2.08320        0.29960
H          2.16093        2.89197        0.53286
C          1.86429        0.80224        0.01014
S          0.50097       -0.22678       -0.25181
C          3.21415        0.26478       -0.07111
S          4.54531        1.27235       -0.55380
C          5.66578       -0.02288       -0.38465
H          6.71859        0.11865       -0.58135
C          5.03282       -1.16420        0.00443
Cl         5.85063       -2.67028        0.26890
C          3.63049       -1.01301        0.18953
H          2.97729       -1.81034        0.52346
C         -2.76363       -0.34645       -0.04007
C         -2.49288       -1.79771        0.14289
O         -1.44734       -2.38827        0.29741
N         -3.75072       -2.41422        0.09366
C         -3.94484       -3.84141        0.22866
C         -4.80989       -1.52315       -0.11421
O         -5.97331       -1.83780       -0.19402
C         -4.16377       -0.19048       -0.20161
C         -4.56427        1.09264       -0.36460
H         -5.56352        1.48507       -0.49402
S         -3.20202        2.14815       -0.31462
H         -2.96054       -4.30104        0.32348
H         -4.45867       -4.23520       -0.65148
H         -4.54345       -4.06109        1.11637
