52
COMP65_000033.log	Energy: -1060715.2210430
C          1.24389        1.35067       -0.10017
C         -0.19834        1.18933       -0.26837
C         -0.77401       -0.01225        0.15354
C         -2.14010       -0.18403       -0.02978
N         -2.97847       -1.27090        0.30150
C         -2.60887       -2.53185        0.76345
O         -3.39030       -3.42349        0.99783
O         -1.28849       -2.61805        0.89808
C         -0.77246       -3.89160        1.28775
C         -4.30167       -0.93071       -0.05300
C         -5.48131       -1.66037        0.08461
C         -6.65488       -1.06525       -0.36247
H         -7.58803       -1.61158       -0.26444
C         -6.66627        0.21436       -0.93167
C         -5.48772        0.93254       -1.06315
C         -4.29873        0.35507       -0.61918
C         -2.93072        0.82618       -0.60656
C         -2.33977        2.01000       -1.04913
C         -0.97913        2.18756       -0.88472
C          2.22808        0.40204       -0.09059
C          2.43058       -1.03981       -0.18266
O          1.66194       -1.97311       -0.16250
N          3.87829       -1.14713       -0.26267
C          4.67660       -2.29608       -0.35746
O          5.88157       -2.23628       -0.42274
O          3.95222       -3.40476       -0.36576
C          4.70848       -4.61292       -0.47865
C          4.47850        0.11711       -0.22344
H          5.55223        0.19704       -0.30554
C          3.51156        1.04528       -0.10237
C          3.31626        2.49377       -0.07020
O          4.08244        3.41727        0.00004
N          1.87144        2.61116       -0.07113
C          1.26349        3.83432        0.30527
O          1.49856        4.88872       -0.21665
O          0.42581        3.63304        1.32325
C         -0.36109        4.76796        1.68946
H         -0.16266       -0.78589        0.59114
H          0.30709       -3.79173        1.18954
H         -1.15189       -4.67202        0.62533
H         -1.05855       -4.11668        2.31793
H         -5.47660       -2.64847        0.52201
H         -7.60320        0.64457       -1.27084
H         -5.48672        1.92500       -1.50412
H         -2.93965        2.77903       -1.52572
H         -0.51280        3.09142       -1.26422
H          3.97065       -5.41288       -0.44716
H          5.41374       -4.70230        0.35036
H          5.25666       -4.63220       -1.42317
H         -0.98862        4.43083        2.51283
H         -0.97767        5.08705        0.84494
H          0.28293        5.59223        2.00191
