49
COMP75_000002.log	Energy: -1326830.4745885
C          0.11727        1.88358        0.00820
C          1.50582        1.42013       -0.18042
C          1.99279        0.33859        0.54948
C          3.31898       -0.03295        0.36216
N          4.01574       -1.07573        0.94684
C          3.46671       -2.03627        1.87096
C          5.32044       -1.04403        0.48952
C          6.39072       -1.87890        0.81482
C          7.60906       -1.63648        0.19555
H          8.45775       -2.27136        0.43281
C          7.76897       -0.58887       -0.72338
C          6.70363        0.24333       -1.03627
C          5.46822        0.02176       -0.42681
C          4.17912        0.67238       -0.50786
C          3.68132        1.76038       -1.22353
C          2.35509        2.12565       -1.05933
C         -1.09139        1.21647        0.05893
C         -1.31130       -0.24558       -0.12944
O         -0.40640       -1.05236       -0.26768
C         -2.73241       -0.65633       -0.13414
C         -3.15210       -1.94280       -0.33197
O         -2.37413       -3.00327       -0.53256
C         -2.98274       -4.24076       -0.85293
S         -4.90820       -2.08262       -0.26537
C         -5.05448       -0.35554        0.04116
O         -6.23387        0.23819        0.19610
C         -7.40651       -0.55408        0.14751
C         -3.83492        0.25903        0.08241
C         -3.62599        1.69655        0.30599
O         -4.52435        2.49812        0.50295
C         -2.20093        2.11267        0.25693
C         -1.82747        3.41823        0.36411
H         -2.48554        4.26330        0.51164
S         -0.13125        3.59191        0.22665
H          1.34148       -0.19618        1.22788
H          2.40569       -2.18318        1.65485
H          3.58029       -1.71508        2.91331
H          3.96958       -2.99789        1.73981
H          6.28496       -2.68546        1.53360
H          8.73598       -0.42825       -1.18948
H          6.82738        1.05649       -1.74605
H          4.32035        2.31431       -1.90480
H          1.95453        2.95762       -1.63047
H         -2.16488       -4.94656       -0.99329
H         -3.56491       -4.16541       -1.77926
H         -3.62646       -4.58829       -0.03496
H         -8.23446        0.13450        0.31146
H         -7.40026       -1.31556        0.93696
H         -7.51781       -1.03388       -0.83271
