48
COMP77_000003.log	Energy: -1861523.9547453
C         -0.11745       -1.67109        0.40251
C         -1.43440       -1.06157        0.50826
C         -1.85645       -0.00057        1.27331
H         -1.18270        0.56761        1.89688
C         -3.24355        0.25056        1.16244
H         -3.75121        1.03068        1.71770
C         -3.89416       -0.60717        0.30662
S         -2.77633       -1.74696       -0.36967
C         -5.29485       -0.65917       -0.07913
C         -6.18570        0.31894        0.16108
C         -7.59992        0.24638       -0.17013
C         -8.36287       -0.83664       -0.53439
H         -7.96808       -1.84428       -0.59639
C         -9.71990       -0.50572       -0.79507
H        -10.47125       -1.22763       -1.09208
C         -9.98148        0.82244       -0.62008
H        -10.92339        1.33831       -0.74495
S         -8.57428        1.68698       -0.13864
C          1.15837       -1.13150        0.41153
C          1.53377        0.28817        0.56382
O          0.79266        1.15955        0.98537
C          2.94612        0.59905        0.19586
C          3.44115        1.87345        0.07541
C          2.71816        3.17653        0.18336
O          3.05024        4.06017        0.93525
O          1.71744        3.24202       -0.69006
C          0.87020        4.38500       -0.56156
S          5.13238        1.87233       -0.20816
C          5.19226        0.14866       -0.23489
C          6.46999       -0.52067       -0.60896
O          6.56381       -1.51405       -1.27984
O          7.51186        0.18715       -0.14442
C          8.79891       -0.31949       -0.50469
C          3.95664       -0.39915        0.01633
C          3.63316       -1.84446        0.17694
O          4.46890       -2.71942        0.26849
C          2.17776       -2.13142        0.23230
C          1.68006       -3.39222        0.10737
H          2.24906       -4.30117       -0.03142
S         -0.02924       -3.40028        0.19059
H         -5.62056       -1.55691       -0.60028
H         -5.84495        1.24006        0.62986
H          0.12248        4.28153       -1.34638
H          1.44214        5.30657       -0.69056
H          0.39478        4.38383        0.42189
H          9.51638        0.39033       -0.09547
H          8.89500       -0.38451       -1.59102
H          8.94765       -1.31107       -0.07137
