48
COMP92_030000.log	Energy: -1451923.3476012
C          0.54130       -0.41352        0.34645
C         -0.91861       -0.60883        0.48563
C         -1.58214       -1.20511        1.51496
H         -1.10065       -1.57964        2.40957
C         -2.99417       -1.23046        1.31309
C         -3.89854       -1.75990        2.28398
N         -4.61272       -2.19987        3.08461
C         -3.38367       -0.66482        0.11303
S         -2.00316       -0.12100       -0.76821
C         -4.72550       -0.52316       -0.43684
S         -5.89125       -1.79245       -0.30688
C         -7.07777       -0.88325       -1.15458
H         -8.06118       -1.30047       -1.32060
C         -6.61416        0.33829       -1.53321
H         -7.19551        1.07516       -2.07241
C         -5.26253        0.55140       -1.12453
C         -4.56583        1.77270       -1.38221
N         -4.02094        2.77103       -1.60810
C          1.32668       -1.57542        0.15051
C          2.68469       -1.49652       -0.03554
C          3.47023       -2.74627       -0.23473
O          2.94534       -3.84147       -0.21398
N          4.84222       -2.59109       -0.44638
C          5.65773       -3.78735       -0.65065
C          5.52052       -1.37066       -0.48516
O          6.71958       -1.33858       -0.67700
C          4.71262       -0.13864       -0.28293
C          5.32235        1.09435       -0.31773
H          6.39150        1.14847       -0.49180
C          4.55973        2.26306       -0.13413
C          3.20340        2.18558        0.09090
C          2.42895        3.44250        0.26814
O          2.95194        4.53664        0.19661
N          1.06710        3.29544        0.52784
C          0.27182        4.50087        0.76353
C          0.40187        2.07974        0.69708
O         -0.74254        2.07030        1.10107
C          1.15798        0.83263        0.36578
C          2.55367        0.92927        0.13821
C          3.32125       -0.23865       -0.06093
H          0.84822       -2.54902        0.13729
H          4.99818       -4.65093       -0.61116
H          6.41899       -3.85186        0.12912
H          6.15577       -3.72994       -1.62021
H          5.02508        3.24195       -0.17084
H          0.84100        5.35188        0.39705
H          0.07167        4.61892        1.83126
H         -0.67804        4.40990        0.23615
