40
COMP51_400300.log	Energy: -1713012.8739001
C          1.20260        0.65223        0.20519
C         -0.23093        0.45086        0.13763
C         -0.91797       -0.67213        0.51162
O         -0.37437       -1.78270        1.05768
C         -2.34534       -0.59209        0.28325
C         -3.34829       -1.54175        0.53826
C         -3.12383       -2.90847        1.12986
C         -4.64229       -1.15072        0.20301
S         -6.04848       -2.17066        0.43093
C         -7.08303       -0.92955       -0.21934
H         -8.14876       -1.10227       -0.29638
C         -6.41370        0.18773       -0.58585
O         -6.96663        1.30693       -1.12207
C         -4.98060        0.10760       -0.35744
C         -3.97919        1.05664       -0.60795
C         -4.20714        2.42515       -1.19389
C         -2.68370        0.66428       -0.27666
S         -1.29039        1.69529       -0.50808
C          1.92110        1.77111        0.58532
C          1.33840        2.98358        1.07609
N          0.87254        3.96348        1.48220
N          3.28551        1.67571        0.51643
C          3.63959        0.50088        0.09456
S          2.33128       -0.57818       -0.29164
C          5.02613        0.08690       -0.05264
S          6.33353        1.17492        0.32044
C          7.43235       -0.06559       -0.11279
H          8.50334        0.07229       -0.06875
C          6.74790       -1.18808       -0.49626
C          7.37854       -2.40489       -0.91520
N          7.91377       -3.37632       -1.24837
N          5.37973       -1.09561       -0.46135
H          0.53699       -1.61131        1.33175
H         -2.07276       -3.11388        1.31625
H         -3.51216       -3.67969        0.45341
H         -3.66732       -3.00420        2.07783
H         -7.92061        1.18263       -1.19316
H         -5.26025        2.62250       -1.37963
H         -3.66486        2.52878       -2.14197
H         -3.82504        3.19636       -0.51355
