37
COMP47_140002.log	Energy: -1554822.6981877
C         -2.40855        0.88372       -0.27642
C         -1.09382        0.29444       -0.22480
C         -0.68918       -0.98971       -0.55662
O         -1.41185       -2.03146       -0.95539
C          0.73076       -1.11274       -0.50898
F          1.31259       -2.27641       -0.80243
C          1.41735        0.01235       -0.14873
S          0.28878        1.29503        0.16738
C          2.83729        0.24230        0.03055
C          3.79457       -0.68339       -0.17596
C          5.21540       -0.45648       -0.00229
C          5.90688        0.65862        0.38210
F          5.34901        1.84447        0.69335
C          7.32103        0.51610        0.44655
O          8.15948        1.51415        0.80709
C          7.71079       -0.74352        0.10107
H          8.71846       -1.12935        0.06180
S          6.35651       -1.73635       -0.29725
C         -3.67048        0.35106       -0.15750
C         -4.27167       -0.95622        0.13898
O         -3.76839       -2.05707        0.28844
N         -5.63571       -0.69691        0.24920
O         -6.54625       -1.70009        0.34554
C         -6.89236       -1.93629        1.71372
C         -6.02116        0.63862       -0.01623
O         -7.14988        1.05206       -0.00548
C         -4.72088        1.31095       -0.25156
C         -4.29796        2.58041       -0.44708
H         -4.87805        3.48869       -0.53260
S         -2.57099        2.61426       -0.55008
H         -2.28933       -2.06672       -0.50336
H          3.11867        1.24093        0.34995
H          3.51080       -1.68064       -0.49683
H          7.63162        2.29995        1.00042
H         -7.62903       -2.73913        1.67851
H         -7.33585       -1.03943        2.15584
H         -6.01334       -2.25760        2.28051
