31
COMP21_300010.log	Energy: -1319460.3320499
C         -2.51689        0.90025       -0.38088
C         -1.07518        0.64379       -0.27476
C         -0.40193       -0.52007       -0.51855
C         -1.00272       -1.72514       -0.98891
N         -1.42586       -2.72250       -1.40214
C          1.02971       -0.40709       -0.33139
C          1.99884       -1.39418       -0.49939
H          1.71715       -2.39804       -0.80207
C          3.31871       -1.03949       -0.26201
S          4.72147       -2.08100       -0.39285
C          5.77275       -0.78968        0.06974
H          6.83903       -0.95728        0.14095
C          5.11961        0.37738        0.31498
C          5.76360        1.58759        0.71093
N          6.25058        2.58946        1.03290
C          3.68603        0.26946        0.13227
C          2.71705        1.25753        0.29612
H          2.99796        2.26212        0.59761
C          1.39825        0.90208        0.05972
S         -0.00396        1.93717        0.20037
C         -3.46554        0.01988        0.23768
N         -3.18148       -1.05131        0.97841
S         -4.60676       -1.68403        1.43216
N         -5.63309       -0.63174        0.73960
C         -4.87725        0.26633        0.10232
C         -5.34715        1.39357       -0.62928
H         -6.41316        1.56515       -0.72457
C         -4.41955        2.22714       -1.18205
H         -4.74038        3.09880       -1.74302
C         -3.01746        1.98344       -1.05736
H         -2.32904        2.67107       -1.54029
