36
COMP29_000120.log	Energy: -1447997.1114472
C         -2.12669       -0.54881        0.00391
C         -0.67196       -0.42671       -0.02097
C          0.07093        0.73579        0.06910
C          1.45507        0.50093       -0.02827
C          1.76367       -0.82941       -0.17136
S          0.38044       -1.82770       -0.20547
C          3.20915       -0.98973       -0.19653
C          3.79931        0.24071       -0.07774
C          2.74510        1.34170        0.03640
O          2.92693        2.20691       -1.03268
C          1.92087        3.18979       -1.19946
O          2.84352        2.11028        1.21024
C          2.71523        1.40223        2.42438
C          5.21332        0.18898       -0.09870
C          5.66021       -1.09699       -0.23320
H          6.68298       -1.44533       -0.27855
S          4.36503       -2.24894       -0.34095
C         -3.00516        0.60245       -0.04525
N         -2.62531        1.87463       -0.12937
S         -3.97701        2.77917       -0.16203
N         -5.10104        1.60746       -0.07213
C         -4.44354        0.45212       -0.01411
C         -5.05430       -0.83102        0.06581
H         -6.12944       -0.95118        0.08959
C         -4.21094       -1.88912        0.10464
F         -4.66912       -3.13660        0.17735
C         -2.78678       -1.74851        0.07569
F         -2.10940       -2.90058        0.12119
H         -0.38671        1.70555        0.19998
H          2.30987        3.89876       -1.93216
H          1.71494        3.71273       -0.26031
H          0.99511        2.74692       -1.58845
H          3.47975        0.61953        2.51652
H          1.72385        0.94242        2.52761
H          2.85538        2.13641        3.21956
H          5.86552        1.04979       -0.02135
