43
COMP21_300130.log	Energy: -1729855.4095364
C         -2.81317       -0.54953       -0.25916
C         -1.35316       -0.36889       -0.24525
C         -0.68555        0.82344       -0.25067
C         -1.41988        2.04912       -0.24142
N         -2.08387        2.99903       -0.20630
C          0.75714        0.66290       -0.17521
C          1.78070        1.62358       -0.18442
C          1.57678        3.07192       -0.48744
O          2.22363        3.95884        0.02183
O          0.66144        3.25044       -1.43356
C          0.32140        4.61037       -1.72922
C          3.08456        1.19274        0.05667
S          4.48461        2.23115        0.21733
C          5.50130        0.85813        0.43925
H          6.55677        0.99534        0.63514
C          4.85247       -0.33702        0.40222
C          5.53510       -1.55029        0.72378
N          6.12008       -2.49695        1.04813
C          3.42882       -0.17765        0.15905
C          2.42529       -1.14584        0.03418
C          2.77361       -2.59124       -0.13369
O          3.66886       -2.97967       -0.84048
O          1.94769       -3.38887        0.55121
C          2.18960       -4.79333        0.39656
C          1.10422       -0.70867       -0.06407
S         -0.30538       -1.74136       -0.11562
C         -3.64069       -0.05216        0.80279
N         -3.20858        0.56570        1.89740
S         -4.53198        0.93790        2.76446
N         -5.69280        0.32248        1.80526
C         -5.07098       -0.19956        0.74946
C         -5.69587       -0.86203       -0.34702
H         -6.77077       -0.98119       -0.39884
C         -4.88342       -1.33830       -1.32165
F         -5.37103       -1.97270       -2.38445
C         -3.45711       -1.18548       -1.27932
F         -2.78073       -1.68290       -2.30990
H         -0.43444        4.55359       -2.50985
H          1.20540        5.15073       -2.07304
H         -0.09034        5.09129       -0.84017
H          1.45830       -5.28469        1.03605
H          3.20739       -5.03140        0.71157
H          2.05388       -5.08718       -0.64646
