44
COMP73_000022.log	Energy: -1266928.7865723
C         -1.55714       -1.19548       -0.18380
C         -2.75737       -0.37166        0.07365
C         -3.18211        0.53529       -0.90630
C         -4.35099        1.26619       -0.73056
O         -4.84119        2.16630       -1.62406
C         -4.10014        2.39230       -2.80031
C         -5.10971        1.08314        0.43094
H         -6.02445        1.65396        0.55124
C         -4.68233        0.20235        1.40654
C         -3.50378       -0.52879        1.24271
O         -3.15283       -1.39631        2.23982
C         -1.88153       -1.19478        2.84584
C         -0.22610       -0.85588       -0.17759
C          0.31512        0.47732        0.19826
O         -0.39575        1.39900        0.56388
C          1.78655        0.57661        0.11408
C          2.49435        1.71532        0.38207
O          1.98328        2.88820        0.74413
C          2.86201        3.97812        0.95681
S          4.22971        1.47326        0.19648
C          3.96849       -0.21152       -0.24564
O          4.97571       -1.03001       -0.53359
C          6.30002       -0.53433       -0.45568
C          2.64153       -0.53827       -0.25009
C          2.10973       -1.87404       -0.57059
O          2.80152       -2.83475       -0.86397
C          0.62922       -1.96199       -0.50496
C         -0.06229       -3.11283       -0.74423
H          0.35997       -4.07350       -1.00533
S         -1.75138       -2.87224       -0.58354
H         -2.57360        0.64521       -1.79598
H         -4.65167        3.14567       -3.36430
H         -4.01563        1.47969       -3.40527
H         -3.09415        2.77077       -2.57689
H         -5.24930        0.06304        2.32089
H         -2.00685       -1.37500        3.91693
H         -1.52544       -0.17179        2.68385
H         -1.14265       -1.89949        2.44831
H          2.22871        4.81624        1.24506
H          3.40733        4.22903        0.03865
H          3.57144        3.76078        1.76479
H          6.94554       -1.37328       -0.71278
H          6.53246       -0.19055        0.55966
H          6.45787        0.28100       -1.17238
