29
COMP13_000020.log	Energy: -729911.2631870
C          1.06427        0.21662       -0.42207
C         -0.36829        0.48164       -0.29387
C         -1.26968       -0.59416       -0.23943
C         -2.63463       -0.36549       -0.10010
O         -3.56979       -1.34301       -0.03517
C         -3.12872       -2.68437       -0.08934
C         -3.11432        0.94670       -0.02419
H         -4.18212        1.10709        0.07869
C         -2.22954        2.00966       -0.07856
C         -0.86063        1.79084       -0.21347
O         -0.01102        2.86861       -0.27275
C          0.46805        3.27393        1.00260
C          2.06315        0.93062       -0.96043
C          3.40036        0.31559       -0.83770
C          3.42721       -0.84586       -0.18457
H          4.25247       -1.51027        0.02950
S          1.77678       -1.27285        0.32347
O          1.64073       -1.20016        1.77443
O          1.33807       -2.48076       -0.37345
H         -0.88210       -1.60245       -0.32335
H         -4.02658       -3.29685       -0.00244
H         -2.44619       -2.91678        0.73732
H         -2.62975       -2.90392       -1.04140
H         -2.58722        3.03295       -0.02227
H         -0.35953        3.59821        1.64588
H          1.14590        4.11178        0.82966
H          1.00849        2.45812        1.49898
H          1.91173        1.88752       -1.44222
H          4.27911        0.78838       -1.26158
