36
COMP55_000410.log	Energy: -1131561.2501832
C          0.57034        0.24277        0.21573
C         -0.86584       -0.06469        0.22162
C         -1.76140        0.84086       -0.35791
C         -3.12149        0.54291       -0.31163
N         -4.19276        1.25883       -0.80489
H         -4.12979        2.13417       -1.29673
C         -5.36575        0.57103       -0.54587
C         -6.68135        0.90956       -0.85939
C         -7.67924        0.02505       -0.47500
H         -8.71389        0.26127       -0.70470
C         -7.38076       -1.16602        0.20413
C         -6.06928       -1.49537        0.51247
C         -5.04667       -0.62250        0.13657
C         -3.60655       -0.64127        0.28480
C         -2.69977       -1.54077        0.84631
C         -1.34622       -1.24921        0.81864
C          1.17162        1.45222        0.48590
O          0.55034        2.59841        0.83121
N          2.52690        1.48914        0.41667
C          2.99259        0.31170        0.10096
S          1.80566       -0.92615       -0.13343
C          4.41039        0.02964       -0.04960
S          5.59927        1.27315        0.16543
C          6.81884        0.10031       -0.17483
H          7.86861        0.35682       -0.17741
C          6.23592       -1.11422       -0.41898
O          6.84585       -2.27853       -0.72097
N          4.87743       -1.15080       -0.34783
H         -1.39682        1.72428       -0.87545
H         -6.91822        1.83045       -1.38368
H         -8.18621       -1.83516        0.48955
H         -5.84014       -2.41871        1.03663
H         -3.05065       -2.45850        1.30886
H         -0.63834       -1.93373        1.27583
H         -0.37574        2.39323        1.02339
H          7.79946       -2.13747       -0.74131
