50
COMP61_200023.log	Energy: -2054622.2344336
C          1.95227        0.74926       -0.35237
C          0.52102        0.49225       -0.26000
C         -0.40135        1.12382        0.51598
Cl         0.02294        2.40828        1.59610
C         -1.72931        0.57368        0.40146
C         -2.93873        0.94815        1.00376
O         -3.04804        2.00583        1.85569
C         -3.27761        3.25092        1.19894
C         -4.06440        0.18626        0.71886
S         -5.64586        0.49141        1.39614
C         -6.30393       -0.84659        0.50554
H         -7.35391       -1.09126        0.58787
C         -5.38814       -1.49327       -0.24865
Cl        -5.81454       -2.85406       -1.23603
C         -4.05633       -0.93138       -0.15351
C         -2.85173       -1.29728       -0.76479
O         -2.74268       -2.34116       -1.63350
C         -2.43426       -3.58622       -1.00782
C         -1.72450       -0.53316       -0.48098
S         -0.15739       -0.82882       -1.17604
C          2.96743       -0.13257       -0.17305
C          3.21626       -1.52830        0.19991
O          2.47671       -2.45803        0.38469
N          4.67059       -1.55758        0.30378
C          5.51287       -2.63152        0.63187
O          6.71173       -2.50444        0.71010
O          4.83039       -3.74637        0.83052
C          5.62211       -4.88522        1.17913
C          5.21715       -0.29711        0.04633
H          6.28581       -0.16059        0.12655
C          4.22062        0.55858       -0.25207
C          3.96691        1.97044       -0.53363
O          4.71005        2.89361       -0.73397
N          2.51235        2.02469       -0.57399
C          1.76256        3.11869       -1.06067
O          0.73403        2.99751       -1.67698
O          2.34680        4.26008       -0.73465
C          1.70304        5.43146       -1.23976
H         -3.31620        4.00554        1.98499
H         -4.22948        3.23340        0.65498
H         -2.46370        3.48536        0.50394
H         -2.37149       -4.32087       -1.81093
H         -3.22491       -3.87676       -0.30758
H         -1.47476       -3.53189       -0.48022
H          4.91032       -5.70244        1.28178
H          6.14639       -4.70958        2.12098
H          6.34917       -5.10044        0.39331
H          2.35084        6.25843       -0.95400
H          0.71386        5.54121       -0.78906
H          1.60302        5.37534       -2.32578
