37
COMP41_400001.log	Energy: -1407113.4204593
C          2.43973        0.54602       -0.25010
C          1.00656        0.33905       -0.15813
C          0.05635        1.28300        0.12415
O          0.29693        2.58127        0.42383
C         -1.30172        0.78300        0.08693
C         -2.51318        1.45609        0.31597
C         -2.64596        2.91591        0.66213
C         -3.66243        0.67827        0.20229
S         -5.28102        1.30777        0.44129
C         -5.96357       -0.26237        0.11995
H         -7.03654       -0.40119        0.15291
C         -5.03247       -1.20518       -0.15224
O         -5.28372       -2.51017       -0.43830
C         -3.66797       -0.70402       -0.11648
C         -2.45797       -1.37566       -0.34076
C         -2.32769       -2.83765       -0.67844
C         -1.30639       -0.59708       -0.23279
S          0.30235       -1.24093       -0.45687
C          3.49309       -0.25830        0.09522
C          3.69854       -1.58418        0.74015
O          2.90722       -2.40259        1.13782
N          5.09556       -1.71798        0.80684
H          5.53785       -2.53646        1.20042
C          5.82283       -0.64405        0.28417
O          7.02487       -0.55241        0.24396
C          4.77050        0.30245       -0.17686
C          4.73445        1.53567       -0.73469
H          5.55192        2.18431       -1.01736
S          3.09024        2.01688       -0.97304
H          1.23774        2.70969        0.60990
H         -1.68320        3.41571        0.73028
H         -3.16331        3.03089        1.62262
H         -3.25038        3.43090       -0.09478
H         -6.23685       -2.65703       -0.41468
H         -3.29267       -3.33559       -0.73335
H         -1.71677       -3.34854        0.07612
H         -1.82045       -2.96091       -1.64343
