54
COMP61_000033.log	Energy: -1620069.8223086
C          1.82963       -1.12175        0.27394
C          0.43162       -0.75155        0.19631
C         -0.06139        0.47464        0.50492
H          0.53950        1.28170        0.89788
C         -1.46970        0.58477        0.24319
C         -2.29230        1.70870        0.44003
C         -1.71114        2.93834        1.06116
O         -0.73283        2.96073        1.77070
O         -2.41405        4.03308        0.74911
C         -1.95780        5.25165        1.34018
C         -3.63619        1.61017        0.07768
S         -4.86013        2.85565        0.21413
C         -6.07130        1.76405       -0.37628
H         -7.09027        2.11436       -0.48010
C         -5.60787        0.53436       -0.68413
H         -6.21637       -0.26756       -1.07196
C         -4.19264        0.40268       -0.43454
C         -3.37039       -0.72540       -0.62940
C         -3.96467       -1.98229       -1.16973
O         -5.13224       -2.15761       -1.43689
O         -3.04061       -2.93832       -1.33485
C         -3.50999       -4.18624       -1.84662
C         -2.01324       -0.61288       -0.29598
S         -0.77715       -1.83856       -0.46142
C          2.91581       -0.32636        0.07026
C          3.26484        1.04872       -0.27302
O          2.60556        2.05531       -0.34656
N          4.70235        0.95101       -0.49429
C          5.61751        1.96061       -0.82735
O          6.79605        1.73636       -0.97195
O          5.02680        3.13743       -0.95594
C          5.90306        4.21596       -1.29101
C          5.14853       -0.36275       -0.31745
H          6.18982       -0.59268       -0.48892
C          4.10056       -1.13236        0.03648
C          3.73105       -2.52851        0.27040
O          4.38057       -3.53253        0.38462
N          2.28573       -2.44918        0.40969
C          1.56711       -3.52166        0.99088
O          1.67844       -4.66622        0.65155
O          0.78859       -3.06468        1.97447
C         -0.10411       -4.02897        2.53572
H         -2.64845        6.01788        0.99155
H         -0.93855        5.46957        1.01430
H         -1.97960        5.17667        2.42964
H         -2.62862       -4.82287       -1.90954
H         -3.95842       -4.04628       -2.83248
H         -4.25262       -4.61647       -1.17101
H          5.26410        5.09624       -1.33767
H          6.38092        4.03382       -2.25610
H          6.67111        4.33595       -0.52378
H         -0.64398       -3.49955        3.31923
H          0.45556       -4.87005        2.94927
H         -0.79671       -4.38884        1.77056
