54
COMP82_310002.log	Energy: -1625614.8683910
C         -0.75639       -0.50984       -0.11951
C         -2.21502       -0.66268       -0.16022
C         -2.94602       -1.80818       -0.40355
C         -2.38956       -3.08562       -0.70456
N         -1.92759       -4.12180       -0.94322
C         -4.34636       -1.55610       -0.37325
F         -5.23518       -2.52341       -0.59307
C         -4.69888       -0.26290       -0.11624
S         -3.25556        0.68777        0.11017
C         -6.03334        0.29332       -0.02135
S         -7.47650       -0.66176       -0.23199
C         -8.49547        0.68840        0.02845
H         -9.57035        0.58166       -0.00766
C         -7.78778        1.83600        0.26902
C         -8.36726        3.11534        0.51781
N         -8.83978        4.15373        0.71945
C         -6.38414        1.58867        0.23619
F         -5.49499        2.55760        0.44372
C         -0.14059        0.62889       -0.64987
C          1.24544        0.77703       -0.64682
C          2.04798       -0.22780       -0.10793
C          3.50333       -0.46702        0.01702
C          3.62985       -1.89364        0.53737
O          4.59867       -2.60518        0.69296
N          2.34125       -2.27641        0.83940
O          2.01547       -3.52169        1.28283
C          1.92193       -4.44794        0.19001
C          1.39402       -1.36744        0.40089
C          0.02770       -1.53132        0.43355
C          4.57468        0.35537       -0.15613
C          4.43218        1.85471       -0.39929
O          3.46529        2.53080       -0.67815
N          5.68958        2.37452       -0.17950
O          6.01307        3.64031       -0.58807
C          5.73335        4.58082        0.45008
C          6.66239        1.38109       -0.10076
C          8.03040        1.55878       -0.07970
C          8.81740        0.40906       -0.01159
H          9.89882        0.50556        0.00459
C          8.23186       -0.85341        0.02550
C          6.84620       -1.00863        0.00093
C          6.02982        0.12328       -0.05316
H         -0.74592        1.40398       -1.10971
H          1.69475        1.66114       -1.07106
H          1.64337       -5.39436        0.65349
H          2.89001       -4.54335       -0.30882
H          1.14356       -4.13914       -0.51569
H         -0.40424       -2.42109        0.87507
H          6.07539        5.53927        0.05700
H          6.28496        4.32735        1.36155
H          4.65942        4.61960        0.65073
H          8.46025        2.55202       -0.13546
H          8.85950       -1.73750        0.06800
H          6.40463       -1.99252        0.02434
