30
COMP48_000002.log	Energy: -1084101.1918880
C         -0.06265        0.53719       -0.04328
C         -1.19959       -0.35560       -0.03120
C         -2.52614        0.00434        0.03485
O         -2.95528        1.28816        0.08820
C         -4.32377        1.39851        0.47782
C         -5.17035        0.37512       -0.25895
O         -4.77451       -0.94604        0.08682
C         -3.42447       -1.10312        0.02711
C         -2.77214       -2.29519       -0.03418
H         -3.21692       -3.27953       -0.05629
S         -1.06230       -2.09727       -0.09056
C          1.28465        0.27783       -0.10280
C          2.16425       -0.90981       -0.16762
O          1.92153       -2.09235       -0.19684
N          3.46087       -0.35814       -0.16707
O          4.55987       -1.12914       -0.38113
C          5.13837       -1.53495        0.86072
C          3.53093        1.04532       -0.15159
O          4.54140        1.70153       -0.16477
C          2.10243        1.44239       -0.09193
C          1.41017        2.60295       -0.02649
H          1.78460        3.61711       -0.00522
S         -0.28844        2.28276        0.02144
H         -4.62835        2.41613        0.22826
H         -4.40748        1.24792        1.56105
H         -5.07452        0.52226       -1.34283
H         -6.22033        0.46753        0.02443
H          6.00353       -2.13775        0.58185
H          4.43022       -2.13994        1.43513
H          5.46071       -0.66168        1.43609
