31
COMP22_240300.log	Energy: -1942773.8510789
C         -2.13004        0.24757       -0.04917
C         -0.74640       -0.17180       -0.29800
C         -0.31907       -1.27404       -0.98286
Cl        -1.34520       -2.39075       -1.82253
C          1.09364       -1.42952       -0.99808
O          1.75787       -2.42811       -1.61847
C          1.74497       -0.43718       -0.30397
S          0.59979        0.69411        0.35918
C          3.17321       -0.29517       -0.11558
S          4.33164       -1.42104       -0.77958
C          5.65757       -0.54836       -0.12218
H          6.67461       -0.87875       -0.27559
C          5.23642        0.54317        0.56828
Cl         6.26892        1.67946        1.38008
C          3.81867        0.69870        0.57938
O          3.15058        1.69441        1.19892
C         -3.00152       -0.59541        0.71592
N         -2.66712       -1.76778        1.25592
S         -3.99305       -2.31546        2.01221
N         -5.03490       -1.10909        1.70376
C         -4.36047       -0.21440        0.97829
C         -4.86868        1.02069        0.49606
H         -5.89324        1.30882        0.69793
C         -4.02571        1.82373       -0.22159
C         -4.51714        3.07831       -0.71944
N         -4.93732        4.08535       -1.10785
C         -2.65682        1.43843       -0.50214
C         -1.85824        2.31705       -1.30921
N         -1.23435        3.03400       -1.97151
H          1.12444       -3.01573       -2.05394
H          3.78275        2.31766        1.58430
