36
COMP94_000001.log	Energy: -1238319.1634349
C          0.36127       -0.21079       -0.09711
C          1.83767       -0.23550       -0.08474
C          2.67409        0.27604        0.86261
H          2.32896        0.85644        1.70867
C          4.03111       -0.04025        0.58345
S          5.55088        0.29231        1.34738
C          6.39638       -0.57446        0.09993
H          7.47405       -0.65282        0.14721
C          5.57484       -1.09373       -0.85310
H          5.92270       -1.66309       -1.70551
C          4.21189       -0.78693       -0.56817
S          2.69499       -1.12131       -1.33080
C         -0.28653       -1.47279       -0.04213
C         -1.64888       -1.58261        0.02914
C         -2.26908       -2.93365        0.10636
O         -1.63732       -3.96830        0.08956
N         -3.65464       -2.93979        0.20254
H         -4.09028       -3.85338        0.25683
C         -4.52019       -1.85288        0.23566
O         -5.71900       -2.01265        0.32550
C         -3.86872       -0.51736        0.15320
C         -4.64874        0.61550        0.17661
H         -5.72535        0.51177        0.25705
C         -4.04284        1.87979        0.09539
C         -2.67447        1.99510       -0.00574
C         -2.08257        3.35235       -0.10352
O         -2.72836        4.37955       -0.07759
N         -0.70655        3.37024       -0.24340
H         -0.28470        4.28405       -0.36312
C          0.18713        2.30301       -0.30837
O          1.35707        2.52854       -0.52440
C         -0.41597        0.94470       -0.11858
C         -1.83822        0.84686       -0.02523
C         -2.45855       -0.42178        0.05382
H          0.30962       -2.37984       -0.03114
H         -4.63744        2.78702        0.10929
