30
COMP53_000000.log	Energy: -907597.7388622
C         -0.73263        0.40404        0.17934
C         -2.19402        0.24528        0.05510
C         -2.76264       -1.00132        0.35143
C         -4.13055       -1.23225        0.25942
C         -4.72284       -2.58206        0.57655
C         -4.94300       -0.17024       -0.14270
H         -6.01731       -0.31590       -0.22681
C         -4.39261        1.06663       -0.44544
C         -3.01895        1.30643       -0.35925
C         -2.48130        2.66863       -0.72273
C         -0.01393        1.38946        0.80171
H         -0.45465        2.23468        1.31560
N          1.34580        1.26306        0.77997
C          1.69263        0.18229        0.13899
S          0.37418       -0.75673       -0.48778
C          3.07436       -0.22889       -0.05833
S          4.39010        0.72741        0.56035
C          5.48135       -0.43084       -0.09681
H          6.55137       -0.32077        0.00616
C          4.79110       -1.42807       -0.71770
H          5.23855       -2.28149       -1.21186
N          3.42686       -1.31039       -0.69398
H         -2.11060       -1.80736        0.68012
H         -3.96221       -3.27692        0.94389
H         -5.18159       -3.02848       -0.31293
H         -5.50309       -2.50232        1.34136
H         -5.04560        1.87347       -0.76874
H         -3.18635        3.19788       -1.37017
H         -1.52149        2.60138       -1.24284
H         -2.32583        3.29168        0.16574
