32
COMP52_330000.log	Energy: -1637206.0590392
C          1.60534       -0.11034        0.12327
C          0.23278        0.35917        0.10233
C         -0.28337        1.60774        0.38174
C          0.50155        2.73570        0.76421
N          1.13454        3.65738        1.06949
C         -1.71304        1.65235        0.28673
C         -2.46899        2.83055        0.56771
N         -3.08251        3.78829        0.78982
C         -2.26760        0.44010       -0.06328
S         -1.03111       -0.74451       -0.31009
C         -3.67385        0.11294       -0.26104
S         -4.75265        1.21805       -1.04486
C         -6.07149        0.14178       -0.90583
H         -7.05052        0.41460       -1.27460
C         -5.71963       -1.02843       -0.29077
C         -6.63325       -2.09881       -0.04514
N         -7.37985       -2.96316        0.14753
C         -4.33417       -1.05003        0.08293
C         -3.72664       -2.15060        0.75913
N         -3.23176       -3.04675        1.30243
C          2.02872       -1.38000        0.43674
H          1.37647       -2.18612        0.75499
N          3.36723       -1.59996        0.35881
C          3.98595       -0.51133       -0.01240
S          2.97634        0.87128       -0.29189
C          5.42637       -0.41700       -0.18583
S          6.46837       -1.77280        0.11589
C          7.80460       -0.78163       -0.31814
H          8.81611       -1.16210       -0.30631
C          7.37699        0.47048       -0.65110
H          8.01805        1.28614       -0.96076
N          6.02708        0.67266       -0.57460
