44
COMP51_400030.log	Energy: -1833857.8185441
C         -2.27702       -0.48707       -0.26067
C         -0.83357       -0.37322       -0.13242
C         -0.08619        0.76632       -0.16077
O         -0.53595        2.02358       -0.34551
C          1.33503        0.52166       -0.05204
C          2.38199        1.45016       -0.02061
C          2.13932        2.91584        0.17630
O          1.46924        3.38216        1.06123
O          2.82676        3.64552       -0.71451
C          2.73775        5.06059       -0.53788
C          3.68545        0.95621       -0.04342
S          5.14952        1.91343       -0.09337
C          6.12212        0.46902       -0.04609
H          7.19974        0.55020       -0.10640
C          5.39598       -0.67262       -0.00641
O          5.86378       -1.93992       -0.05956
C          3.96732       -0.43080        0.02909
C          2.91688       -1.35510        0.10121
C          3.14560       -2.79822        0.43176
O          3.80367       -3.19125        1.36013
O          2.45403       -3.59972       -0.39370
C          2.51148       -4.99205       -0.07892
C          1.61544       -0.86570       -0.00617
S          0.15247       -1.82427       -0.02831
C         -2.99798       -1.38461       -1.00579
H         -2.55557       -2.14237       -1.64165
N         -4.35647       -1.27909       -0.93565
C         -4.70356       -0.30397       -0.14535
S         -3.38417        0.54534        0.60586
C         -6.08135        0.07853        0.11947
S         -7.41035       -0.76730       -0.61514
C         -8.48345        0.29388        0.21352
H         -9.55540        0.20725        0.10797
C         -7.77724        1.18621        0.96383
H         -8.21109        1.96202        1.58220
N         -6.41548        1.06102        0.90797
H         -1.48051        2.00761       -0.55390
H          3.37176        5.49067       -1.31207
H          3.09362        5.34465        0.45519
H          1.70363        5.39168       -0.65709
H          6.82799       -1.92481       -0.04676
H          1.88407       -5.48463       -0.82065
H          2.12956       -5.17114        0.92883
H          3.54044       -5.35286       -0.14326
