32
COMP72_220001.log	Energy: -2680633.4298726
C          1.57690       -1.26551       -0.49122
C          0.22545       -0.88579       -0.07528
C         -0.40083       -1.18747        1.10124
Cl         0.33100       -2.10765        2.36009
C         -1.71379       -0.63368        1.19327
Cl        -2.72566       -0.82491        2.57172
C         -2.07253        0.07492        0.07908
S         -0.79609        0.06656       -1.09147
C         -3.33481        0.76071       -0.18235
S         -3.44010        2.49245       -0.17297
C         -5.11796        2.45792       -0.53550
H         -5.68510        3.37113       -0.64475
C         -5.58027        1.18308       -0.65078
Cl        -7.22105        0.78655       -1.00964
C         -4.55635        0.20440       -0.45135
Cl        -4.83211       -1.49094       -0.56180
C          2.74037       -0.54322       -0.39287
C          2.85790        0.82190        0.18979
O          1.90920        1.44913        0.62274
C          4.24025        1.35768        0.19612
C          4.58536        2.58462        0.68626
H          3.92292        3.31680        1.12733
S          6.27144        2.87202        0.52566
C          6.53416        1.34034       -0.20645
H          7.51912        1.02103       -0.51856
C          5.36955        0.63751       -0.32098
C          5.25557       -0.71701       -0.90764
O          6.20527       -1.33452       -1.35285
C          3.87435       -1.26051       -0.90270
C          3.54667       -2.49905       -1.37444
H          4.22553       -3.22476       -1.80166
S          1.87317       -2.81591       -1.20954
