27
COMP42_100001.log	Energy: -1340093.7877610
C          1.96953        0.70539       -0.04546
C          0.53099        0.86126       -0.04843
C         -0.17921        2.03466       -0.13415
F          0.41671        3.22647       -0.22997
C         -1.58216        1.90758       -0.13191
H         -2.26164        2.74538       -0.22493
C         -1.95650        0.59228       -0.03579
S         -0.58986       -0.47043        0.06547
C         -3.30391        0.04638       -0.01083
S         -4.63382        0.99350        0.58781
C         -5.75886       -0.27387        0.27712
H         -6.81203       -0.16310        0.48774
C         -5.11895       -1.35712       -0.23988
F         -5.73992       -2.48810       -0.57610
C         -3.71990       -1.19485       -0.41358
H         -3.07433       -1.95449       -0.83725
C          2.74904       -0.42151        0.02828
C          2.55210       -1.88737        0.13148
O          1.53764       -2.54461        0.18219
N          3.85040       -2.41155        0.16193
H          4.03058       -3.40306        0.23036
C          4.87517       -1.45746        0.08918
O          6.05811       -1.69100        0.09935
C          4.14556       -0.16497        0.00246
C          4.46415        1.14794       -0.08987
H          5.43956        1.61286       -0.12858
S          3.02779        2.10524       -0.14892
