50
COMP71_300020.log	Energy: -1883641.9749059
C          1.27807       -1.59384       -0.59732
C         -0.09820       -1.12432       -0.45922
C         -0.62487        0.03785       -0.94993
C          0.15445        0.96050       -1.70943
N          0.81229        1.69600       -2.31802
C         -2.02675        0.20024       -0.63643
C         -2.88825        1.25846       -0.94407
O         -2.47332        2.35694       -1.62958
C         -1.85719        3.36035       -0.81929
C         -4.21777        1.13229       -0.55986
S         -5.47051        2.30528       -0.89005
C         -6.64052        1.31479       -0.09389
H         -7.67106        1.63792       -0.02932
C         -6.13494        0.15059        0.39871
C         -6.94751       -0.79936        1.08972
N         -7.62199       -1.54363        1.66897
C         -4.71406        0.01018        0.14350
C         -3.84412       -1.02987        0.48573
O         -4.26754       -2.14257        1.14461
C         -4.25832       -2.03070        2.56784
C         -2.52063       -0.91564        0.07743
S         -1.27979       -2.10544        0.36854
C          2.45555       -0.97045       -0.25162
C          2.59091        0.32863        0.47032
O          1.62996        0.95308        0.89034
C          3.98131        0.78586        0.65627
C          4.31351        1.99527        1.21260
C          3.41537        3.07761        1.72310
S          6.03387        2.16725        1.26125
C          6.32372        0.62200        0.54117
C          7.71538        0.13175        0.29163
C          5.12997        0.00480        0.26956
C          5.00366       -1.32156       -0.35759
O          5.95451       -2.02127       -0.66870
C          3.60351       -1.75486       -0.60023
C          3.28070       -2.94602       -1.18213
H          3.97281       -3.70218       -1.52683
S          1.58794       -3.13661       -1.33383
H         -1.50530        4.12662       -1.50934
H         -1.00507        2.95319       -0.26513
H         -2.58440        3.78750       -0.11851
H         -4.66893       -2.96661        2.94569
H         -4.88966       -1.20075        2.90179
H         -3.23673       -1.89040        2.94054
H          2.69251        3.35984        0.95294
H          3.98517        3.96221        2.01981
H          2.83947        2.72185        2.58223
H          8.46061        0.85400        0.63485
H          7.86748       -0.05353       -0.77552
H          7.87987       -0.82056        0.80275
