29
COMP42_310001.log	Energy: -1455808.8160275
C          2.35626        0.51140        0.05297
C          0.93449        0.81451        0.01083
C          0.32137        2.05781       -0.04109
C          0.95906        3.33023       -0.09215
N          1.44949        4.38007       -0.13364
C         -1.09271        1.95008       -0.04926
F         -1.87092        3.02921       -0.10143
C         -1.57702        0.67505       -0.00516
S         -0.25330       -0.45154        0.03877
C         -2.96336        0.25485       -0.00680
S         -4.29438        1.37721       -0.10615
C         -5.45304        0.11987       -0.04685
H         -6.51017        0.34204       -0.08274
C         -4.87467       -1.11840        0.04464
C         -5.58976       -2.35079        0.11060
N         -6.17368       -3.34991        0.16403
C         -3.45310       -1.01960        0.06649
F         -2.67641       -2.09486        0.15204
C          3.00679       -0.69778       -0.01962
C          2.66119       -2.13838       -0.17180
O          1.58368       -2.67864       -0.26298
N          3.89412       -2.79405       -0.18494
H          3.96979       -3.79753       -0.27471
C          5.01097       -1.95696       -0.04894
O          6.16207       -2.31098       -0.03068
C          4.41762       -0.59814        0.05980
C          4.87539        0.67057        0.20027
H          5.89420        1.02408        0.28197
S          3.55891        1.77811        0.23410
