37
COMP47_020003.log	Energy: -1983865.6900387
C          2.37136       -1.52432       -0.09037
C          0.92678       -1.56491        0.06760
C          0.09053       -2.62322        0.36855
Cl         0.61148       -4.23940        0.72323
C         -1.28404       -2.30264        0.40187
H         -2.04985       -3.02377        0.65795
C         -1.51788       -0.98269        0.10784
S         -0.03788       -0.13591       -0.17462
C         -2.77827       -0.26195        0.02675
C         -3.98312       -0.85410       -0.02829
C         -5.25205       -0.14531       -0.07490
C         -5.52546        1.18049        0.14733
H         -4.78737        1.91959        0.43253
C         -6.90492        1.47731       -0.01511
Cl        -7.54831        3.07405        0.20463
C         -7.67167        0.39998       -0.34711
H         -8.73810        0.37111       -0.51712
S         -6.70500       -1.01539       -0.47138
C          3.23529       -0.45205       -0.08352
C          3.16402        1.00911        0.15061
O          2.22218        1.70363        0.43300
N          4.51036        1.46481        0.01727
C          4.93929        2.80180        0.21851
O          5.96720        3.09213        0.76610
O          4.05792        3.64932       -0.29811
C          4.35152        5.03017       -0.07301
C          5.43313        0.41279       -0.26678
O          6.61257        0.53526       -0.45092
C          4.58637       -0.79742       -0.32429
C          4.79554       -2.12009       -0.53259
H          5.72410       -2.64148       -0.71956
S          3.30441       -2.97380       -0.42501
H         -2.71175        0.82346       -0.00521
H         -4.04009       -1.94067       -0.05304
H          3.50931        5.57470       -0.49665
H          5.28271        5.30542       -0.57316
H          4.44269        5.23016        0.99680
