27
COMP22_020000.log	Energy: -1732691.6993996
C         -2.21117       -0.79604       -0.08658
C         -0.86572       -0.21916       -0.01076
C         -0.48819        1.01302        0.45352
H         -1.18167        1.75452        0.82365
C          0.91686        1.20513        0.39314
Cl         1.66695        2.66838        0.93954
C          1.61567        0.14227       -0.11281
S          0.51713       -1.12945       -0.54333
C          3.05314        0.00628       -0.33080
S          3.86033        0.86427       -1.60725
C          5.38226        0.18202       -1.18954
H          6.27020        0.44952       -1.74568
C          5.29245       -0.66792       -0.12981
H          6.12675       -1.20307        0.30492
C          3.95666       -0.76337        0.35308
Cl         3.53323       -1.75823        1.70781
C         -3.38980        0.03095       -0.04515
N         -3.42589        1.35852        0.07614
S         -4.99396        1.78811        0.06534
N         -5.69250        0.33048       -0.09378
C         -4.70161       -0.56192       -0.14375
C         -4.85860       -1.96985       -0.28168
H         -5.85152       -2.39755       -0.35641
C         -3.72624       -2.72714       -0.31153
H         -3.79908       -3.80539       -0.41114
C         -2.42579       -2.14726       -0.20948
H         -1.57473       -2.82245       -0.21996
