48
COMP92_130000.log	Energy: -1576421.3608578
C          0.78204       -0.31740        0.27798
C         -0.67518       -0.45547        0.49185
C         -1.31384       -0.73701        1.65646
F         -0.68863       -0.90899        2.81445
C         -2.73333       -0.79987        1.55624
C         -3.56728       -1.04972        2.68444
N         -4.23016       -1.26150        3.61151
C         -3.16508       -0.56215        0.26478
S         -1.82331       -0.28199       -0.78635
C         -4.52732       -0.57012       -0.24728
S         -5.69987       -1.69487        0.34326
C         -6.92094       -1.10040       -0.71020
H         -7.92022       -1.50960       -0.70499
C         -6.44077       -0.09196       -1.48108
F         -7.15282        0.56574       -2.38609
C         -5.07225        0.22970       -1.23610
C         -4.39921        1.27793       -1.92894
N         -3.86810        2.12898       -2.50969
C          1.51153       -1.50892        0.05514
C          2.86618       -1.48467       -0.16554
C          3.59288       -2.76423       -0.39800
O          3.01881       -3.83446       -0.39346
N          4.96759       -2.66585       -0.62344
C          5.72797       -3.89233       -0.85984
C          5.69868       -1.47615       -0.64586
O          6.89585       -1.49281       -0.85005
C          4.94827       -0.21340       -0.41207
C          5.61327        0.99056       -0.42500
H          6.68253        0.99920       -0.60662
C          4.90698        2.18775       -0.20441
C          3.54979        2.16765        0.02664
C          2.84051        3.45350        0.25530
O          3.42108        4.52010        0.23822
N          1.46875        3.36600        0.49460
C          0.72203        4.60072        0.73823
C          0.72355        2.18757        0.54501
O         -0.46252        2.24033        0.80067
C          1.44371        0.90429        0.27773
C          2.84155        0.94259        0.04499
C          3.55534       -0.25506       -0.17904
H          0.99543       -2.46317        0.05714
H          5.03193       -4.72704       -0.83165
H          6.49231       -4.00601       -0.08868
H          6.21963       -3.83636       -1.83269
H          5.41744        3.14456       -0.21258
H          1.42270        5.42950        0.67613
H          0.26049        4.56216        1.72645
H         -0.06507        4.70660       -0.01067
