48
COMP71_400031.log	Energy: -1955171.3825531
C          1.82686       -1.20664       -0.57193
C          0.47351       -0.78771       -0.26415
C         -0.10097        0.44909       -0.40912
O          0.50540        1.56677       -0.81074
C         -1.53157        0.43729       -0.19029
C         -2.40243        1.52914       -0.21511
C         -1.90366        2.94542       -0.26157
O         -1.21921        3.45011        0.59057
O         -2.38452        3.59183       -1.33096
C         -2.01639        4.96959       -1.42058
C         -3.76267        1.26959       -0.07607
S         -5.04712        2.45458       -0.15760
C         -6.23553        1.21713        0.14092
H         -7.28684        1.47431        0.14314
C         -5.70475       -0.02016        0.28819
O         -6.37738       -1.18339        0.43531
C         -4.25856       -0.02867        0.20189
C         -3.36929       -1.10554        0.33150
C         -3.79756       -2.43474        0.87117
O         -4.44347       -2.59214        1.87509
O         -3.29916       -3.43962        0.13268
C         -3.55616       -4.75041        0.63825
C         -2.02248       -0.86157        0.06676
S         -0.72499       -2.03300        0.10976
C          3.07539       -0.64626       -0.32567
C          3.36543        0.58267        0.42436
O          2.51191        1.37476        0.82685
C          4.79507        0.84166        0.69253
C          5.25469        1.90607        1.41646
H          4.66086        2.67146        1.89698
S          6.96957        1.91380        1.49534
C          7.09089        0.48646        0.54550
H          8.04783        0.04995        0.29466
C          5.85815        0.02345        0.18854
C          5.59604       -1.18448       -0.62003
O          6.47842       -1.89233       -1.07068
C          4.15381       -1.47912       -0.80889
C          3.72297       -2.62221       -1.40470
H          4.34589       -3.39949       -1.82602
S          2.01507       -2.73270       -1.40256
H          1.30824        1.67980       -0.24466
H         -2.50482        5.34447       -2.31899
H         -0.93136        5.06522       -1.50326
H         -2.35932        5.51466       -0.53803
H         -7.32159       -0.99998        0.50557
H         -3.09310       -5.43341       -0.07272
H         -4.63205       -4.92801        0.70081
H         -3.11494       -4.87016        1.63070
