30
COMP62_230001.log	Energy: -1692937.7739434
C          2.49442       -0.66705        0.10586
C          1.18855       -0.03841        0.15517
C          0.84401        1.21285        0.60007
Cl         1.93042        2.34358        1.29061
C         -0.55925        1.47153        0.50608
C         -1.15949        2.69081        0.94240
N         -1.65282        3.67869        1.29401
C         -1.26665        0.40023       -0.00288
S         -0.21193       -0.90889       -0.38429
C         -2.69922        0.30305       -0.25365
S         -3.56729        1.58767       -1.01389
C         -5.04517        0.71903       -0.95674
H         -5.95887        1.15186       -1.33827
C         -4.88549       -0.50614       -0.38626
Cl        -6.16242       -1.64160       -0.16204
C         -3.53841       -0.76025        0.02306
C         -3.12380       -1.96114        0.67300
N         -2.77846       -2.93556        1.19704
C          3.70327       -0.17356       -0.28591
C          4.34991        0.99528       -0.89323
O          3.94997        2.09230       -1.21272
N          5.68309        0.53786       -1.07889
H          6.39444        1.12467       -1.48641
C          5.85167       -0.76886       -0.67803
H          6.80539       -1.26656       -0.79097
C          4.67303       -1.23094       -0.18834
C          4.00919       -2.43686        0.30891
O          4.40360       -3.54535        0.58869
N          2.65503       -2.01096        0.42404
H          1.97460       -2.56718        0.92253
