37
COMP23_000430.log	Energy: -988682.0889797
C         -0.86659       -0.27864        0.27742
C          0.37604        0.48997        0.01552
C          1.59892       -0.13414        0.26267
C          2.80156        0.54420        0.08235
C          4.12226       -0.10031        0.33764
O          5.18814        0.45591        0.19848
O          4.00273       -1.37143        0.74811
C          5.23241       -2.04367        1.01129
C          2.79454        1.87167       -0.34178
H          3.73844        2.38903       -0.47421
C          1.58697        2.50360       -0.58981
C          0.37746        1.82355       -0.42780
C         -0.89585        2.51691       -0.79807
O         -1.88488        1.97846       -1.23625
O         -0.80226        3.84586       -0.62188
C         -1.95881        4.58630       -1.00400
C         -1.11130       -1.53220       -0.37322
N         -0.31084       -2.11622       -1.25994
S         -1.04052       -3.50664       -1.70426
N         -2.39360       -3.42247       -0.79273
C         -2.31122       -2.28848       -0.10510
C         -3.27596       -1.80234        0.82377
H         -4.17893       -2.37052        1.02192
C         -3.01278       -0.61496        1.42871
O         -3.82306       -0.00801        2.34038
C         -1.81322        0.14834        1.16540
O         -1.65960        1.31693        1.82341
H          1.61102       -1.16311        0.60148
H          4.95725       -3.05845        1.29709
H          5.77219       -1.54920        1.82281
H          5.86277       -2.05336        0.11889
H          1.57064        3.53455       -0.92379
H         -1.71892        5.63054       -0.80558
H         -2.82421        4.27319       -0.41465
H         -2.17900        4.43676       -2.06386
H         -4.62664       -0.52577        2.46881
H         -2.44042        1.45286        2.38007
