48
COMP71_300000.log	Energy: -1789293.2458789
C          1.09252        1.57146        0.39745
C         -0.28216        1.09021        0.27321
C         -0.83467       -0.00273        0.87929
C         -0.04984       -0.82980        1.73719
N          0.60555       -1.47732        2.44150
C         -2.24149       -0.18678        0.57522
C         -3.11040       -1.19808        1.01160
C         -2.66353       -2.32445        1.90545
C         -4.42217       -1.09546        0.55662
S         -5.70434       -2.22730        0.95878
C         -6.83786       -1.34062        0.01629
H         -7.86501       -1.67227       -0.05680
C         -6.30578       -0.24202       -0.58441
C         -7.11677        0.60356       -1.40184
N         -7.79729        1.27387       -2.05970
C         -4.89138       -0.06231       -0.29406
C         -4.02135        0.94392       -0.73685
C         -4.46623        2.05914       -1.64600
C         -2.71110        0.84425       -0.27760
S         -1.43155        1.96915       -0.68714
C          2.27907        0.92488        0.13970
C          2.43128       -0.43178       -0.46213
O          1.47828       -1.09296       -0.84031
C          3.82606       -0.89765       -0.58188
C          4.17187       -2.14650       -1.03259
C          3.28608       -3.26871       -1.47350
S          5.89339       -2.31539       -1.03244
C          6.16516       -0.71711       -0.42997
C          7.55007       -0.20452       -0.18815
C          4.96472       -0.08433       -0.23381
C          4.82315        1.28703        0.28400
O          5.76603        2.00925        0.56714
C          3.41746        1.73860        0.44990
C          3.07920        2.97496        0.91742
H          3.76163        3.75983        1.21386
S          1.38276        3.17396        1.00483
H         -1.83639       -2.88104        1.45583
H         -3.47369       -3.03295        2.09547
H         -2.31536       -1.95116        2.87319
H         -5.25355        2.66072       -1.18200
H         -4.86773        1.66878       -2.58572
H         -3.64043        2.73065       -1.89443
H          2.54505       -3.48812       -0.70017
H          3.86195       -4.17347       -1.68526
H          2.72901       -2.98437       -2.37094
H          8.30438       -0.93982       -0.47981
H          7.68525        0.03992        0.86951
H          7.71676        0.71946       -0.74799
