42
COMP72_440000.log	Energy: -1765160.1653035
C          0.52591        0.98307        0.46677
C         -0.72051        0.25157        0.41064
C         -1.06546       -0.96262        0.96236
O         -0.29590       -1.85016        1.61293
C         -2.45382       -1.25573        0.85068
O         -2.96523       -2.41106        1.33050
C         -3.18569       -0.28189        0.22587
S         -2.14258        1.03374       -0.25890
C         -4.59945       -0.29520       -0.07393
S         -5.63402       -1.64612        0.33628
C         -7.02477       -0.86090       -0.32993
H         -7.99072       -1.34632       -0.30681
C         -6.71069        0.36115       -0.83475
O         -7.50323        1.29223       -1.43899
C         -5.32967        0.68732       -0.69010
O         -4.80591        1.85707       -1.12668
C          1.86149        0.61374        0.32748
C          2.38579       -0.71653        0.00523
O          1.68992       -1.73926       -0.03791
C          3.82848       -0.79238       -0.28184
C          4.47484       -1.94500       -0.65891
C          3.92462       -3.31733       -0.89176
S          6.16372       -1.63234       -0.85805
C          6.02326        0.03798       -0.42988
C          7.21838        0.93803       -0.40658
C          4.71522        0.33506       -0.15260
C          4.22317        1.66693        0.23607
O          4.94684        2.64233        0.36769
C          2.75472        1.74369        0.42499
C          2.11317        2.92167        0.64070
H          2.57355        3.89570        0.73299
S          0.41689        2.70612        0.74036
H          0.55032       -1.91479        1.10187
H         -2.21567       -2.91638        1.68371
H         -8.41155        0.97317       -1.48004
H         -5.52284        2.37873       -1.51413
H          3.12914       -3.28847       -1.64084
H          3.47964       -3.71062        0.02649
H          4.70427       -4.00555       -1.22916
H          8.13347        0.39518       -0.65765
H          7.33291        1.39196        0.58143
H          7.08764        1.75998       -1.11629
