54
COMP97_430000.log	Energy: -1594848.6317861
C         -1.44199       -0.03030        0.15131
C         -0.03462       -0.38235        0.42564
C          0.44437       -1.20842        1.41412
C         -0.36848       -1.97321        2.29701
N         -0.98234       -2.62521        3.03504
C          1.87317       -1.27304        1.44485
O          2.59365       -2.00577        2.31589
C          2.46913       -0.48528        0.48967
S          1.25646        0.34072       -0.44732
C          3.89393       -0.36702        0.26656
C          4.49097        0.38661       -0.67730
C          5.93285        0.51782       -0.82069
C          6.88336        0.55081        0.17239
O          6.67394        0.48296        1.50135
C          8.21610        0.70798       -0.33259
C          9.37647        0.77022        0.49595
N         10.32625        0.82326        1.15798
C          8.24708        0.80258       -1.69869
H          9.12303        0.92162       -2.32038
S          6.68353        0.70571       -2.38306
C         -1.80400        1.32904        0.31898
C         -3.10295        1.74556        0.17108
C         -3.43436        3.18569        0.36004
O         -2.57924        4.00914        0.61690
N         -4.77893        3.53638        0.22471
C         -5.15693        4.93793        0.40051
C         -5.81849        2.65093       -0.06981
O         -6.95982        3.05354       -0.17100
C         -5.46005        1.21876       -0.25004
C         -6.44193        0.29663       -0.52956
H         -7.46985        0.63188       -0.61519
C         -6.10654       -1.06009       -0.69602
C         -4.79787       -1.47590       -0.59310
C         -4.48586       -2.91819       -0.76780
O         -5.35194       -3.74601       -0.96619
N         -3.13666       -3.26696       -0.70554
C         -2.76901       -4.66411       -0.93339
C         -2.07673       -2.37700       -0.53763
O         -0.93564       -2.76784       -0.67872
C         -2.41647       -0.95998       -0.19826
C         -3.76782       -0.54667       -0.31186
C         -4.11327        0.81008       -0.13024
H          2.00704       -2.54990        2.85937
H          4.49643       -0.99647        0.91927
H          3.88000        0.95242       -1.38067
H          5.72796        0.59580        1.67614
H         -1.04944        2.06064        0.58925
H         -4.25922        5.49521        0.65734
H         -5.90013        5.01939        1.19554
H         -5.59226        5.32205       -0.52420
H         -6.87115       -1.80031       -0.90485
H         -3.68331       -5.25256       -0.92244
H         -2.08991       -4.98929       -0.14433
H         -2.26494       -4.76811       -1.89681
