39
COMP21_300220.log	Energy: -2039914.2599443
C          2.41503       -0.22916        0.09511
C          0.94136       -0.20453        0.04323
C          0.18557        0.74169       -0.58589
C          0.78591        1.81199       -1.31559
N          1.31068        2.67944       -1.87800
C         -1.23619        0.53791       -0.40949
C         -2.30805        1.29057       -0.89850
O         -2.11989        2.38300       -1.68680
C         -1.95403        3.61041       -0.97519
C         -3.59041        0.85457       -0.58501
S         -5.06954        1.62803       -1.10384
C         -6.01033        0.44895       -0.26216
H         -7.09067        0.50514       -0.28037
C         -5.26760       -0.49679        0.37576
C         -5.86565       -1.56513        1.11137
N         -6.37524       -2.43571        1.68295
C         -3.84198       -0.29270        0.20246
C         -2.76909       -1.04349        0.69341
O         -2.95473       -2.13270        1.48728
C         -3.10497       -3.36596        0.78299
C         -1.48712       -0.60734        0.37997
S         -0.01142       -1.37946        0.90167
C          3.08832        0.72182        0.92648
N          2.49894        1.63908        1.69256
S          3.69936        2.46175        2.41533
N          4.99568        1.69826        1.80111
C          4.51955        0.75362        0.98827
C          5.29004       -0.16606        0.22784
H          6.37174       -0.14269        0.27593
C          4.63297       -1.06564       -0.55670
Cl         5.56613       -2.18956       -1.49137
C          3.18945       -1.09858       -0.63097
Cl         2.42797       -2.24236       -1.68362
H         -1.72815        4.36525       -1.72766
H         -1.12180        3.54594       -0.26653
H         -2.87360        3.87555       -0.44022
H         -3.30270       -4.12247        1.54174
H         -2.18865       -3.61409        0.23442
H         -3.95025       -3.32198        0.08832
