48
COMP92_000002.log	Energy: -1430484.8176856
C         -0.04109       -0.30880        0.48520
C         -1.48346       -0.58335        0.63916
C         -2.07307       -1.27013        1.66425
H         -1.52622       -1.60662        2.53786
C         -3.46997       -1.45250        1.48421
H         -4.11633       -1.93232        2.21010
C         -3.93142       -0.92974        0.30483
S         -2.63702       -0.20802       -0.59903
C         -5.28799       -0.92945       -0.22343
S         -6.38183       -2.23493        0.12391
C         -7.64430       -1.49093       -0.78296
H         -8.61156       -1.96807       -0.85875
C         -7.24150       -0.31195       -1.33631
H         -7.88415        0.31325       -1.94450
C         -5.89290        0.01139       -1.01568
H         -5.39453        0.92011       -1.33419
C          0.80185       -1.45003        0.44364
C          2.15469       -1.34243        0.25502
C          2.98115       -2.58077        0.22512
O          2.52737       -3.69333        0.36417
N          4.34758       -2.36804        0.00794
O          5.14850       -3.47274        0.10799
C          5.31587       -4.10132       -1.16413
C          5.00715       -1.15245       -0.21612
O          6.19570       -1.11174       -0.43808
C          4.13641        0.05397       -0.17041
C          4.70209        1.29352       -0.36229
H          5.76868        1.36390       -0.54556
C          3.89671        2.44395       -0.31636
C          2.54469        2.34237       -0.07454
C          1.74313        3.59178       -0.02476
O          2.19719        4.69289       -0.24051
N          0.39979        3.40049        0.29849
O         -0.30955        4.53984        0.56760
C         -1.00371        4.98998       -0.59567
C         -0.27465        2.19551        0.56201
O         -1.42622        2.21568        0.92563
C          0.53288        0.95343        0.35940
C          1.93154        1.07926        0.12330
C          2.74790       -0.07322        0.06833
H          0.36161       -2.43587        0.54957
H          5.97066       -4.95021       -0.96530
H          5.79742       -3.41808       -1.86979
H          4.35461       -4.45528       -1.54840
H          4.32372        3.42951       -0.46701
H         -1.52451        5.89204       -0.27310
H         -1.72912        4.24012       -0.92568
H         -0.29618        5.23395       -1.39367
