27
COMP58_000200.log	Energy: -1779258.6756010
C         -0.91910        0.75399        0.00217
C         -2.33680        0.45799       -0.00781
C         -2.89861       -0.79658       -0.00390
O         -2.17556       -1.94277        0.03083
C         -2.94459       -3.09243       -0.31925
C         -4.28916       -3.06543        0.38654
O         -5.05480       -1.94161       -0.03159
C         -4.32582       -0.79433       -0.02541
C         -4.84202        0.46295       -0.05359
H         -5.88521        0.74235       -0.07097
S         -3.60391        1.66204       -0.04860
C         -0.24117        1.95570        0.01260
Cl        -0.98767        3.51595        0.02577
N          1.11192        1.91327        0.01377
C          1.51968        0.67509        0.00571
S          0.27226       -0.52336       -0.00336
C          2.92463        0.30601        0.00584
S          4.17232        1.51504        0.02162
C          5.34033        0.25090        0.01284
H          6.40279        0.44320        0.01824
C          4.70276       -0.95310       -0.00093
Cl         5.51755       -2.47852       -0.01368
N          3.34316       -0.92978       -0.00498
H         -2.35504       -3.95701       -0.01042
H         -3.08802       -3.11786       -1.40640
H         -4.14049       -3.03083        1.47374
H         -4.87611       -3.94974        0.13160
