28
COMP62_000001.log	Energy: -1000450.5205685
C          1.77034        0.39046       -0.01046
C          0.39679       -0.02862        0.02971
C         -0.04968       -1.32781        0.12206
H          0.63462       -2.17007        0.17409
C         -1.45936       -1.41912        0.15408
H         -1.99818       -2.35476        0.24963
C         -2.09017       -0.19922        0.08521
S         -0.93484        1.08900       -0.03934
C         -3.51496        0.08847        0.09638
S         -4.66398       -1.08564       -0.47169
C         -5.98607       -0.03814       -0.12515
H         -6.99919       -0.36123       -0.32090
C         -5.56742        1.15509        0.38541
H         -6.24282        1.95268        0.67037
C         -4.15290        1.22893        0.51380
H         -3.62761        2.08466        0.92332
C          2.90911       -0.37576        0.02375
C          3.37124       -1.75054        0.09940
O          2.79722       -2.82500        0.17570
N          4.78045       -1.59910        0.06566
H          5.40097       -2.39243        0.10365
C          5.16787       -0.27623       -0.02156
H          6.21365       -0.00417       -0.05799
C          4.04967        0.49235       -0.04778
C          3.57706        1.87593       -0.12954
O          4.14063        2.94452       -0.20615
N          2.16502        1.71705       -0.09869
H          1.54947        2.51512       -0.14266
