36
COMP67_430001.log	Energy: -1259088.8103812
C         -3.22315       -0.55927       -0.34832
C         -1.91106        0.03542       -0.26543
C         -1.59861        1.37970       -0.26920
C         -2.49461        2.46025       -0.50614
N         -3.11473        3.41270       -0.73831
C         -0.19442        1.61846       -0.13584
O          0.38003        2.83456       -0.12839
C          0.54811        0.46426       -0.03978
S         -0.48739       -0.93133       -0.11133
C          1.98505        0.40569        0.11668
C          2.72793       -0.71526        0.20754
C          4.17809       -0.72672        0.30513
C          5.07600        0.14080       -0.27277
O          4.79923        1.18399       -1.07787
C          6.43999       -0.17950        0.03188
C          7.55724        0.56695       -0.44906
N          8.47297        1.16354       -0.83446
C          6.54820       -1.29105        0.82496
H          7.46024       -1.73652        1.19620
S          5.02158       -1.95910        1.20556
C         -4.40771       -0.12753        0.17372
C         -4.97869        0.86554        1.08856
O         -4.51292        1.82465        1.66243
N         -6.32573        0.42684        1.20350
H         -7.00143        0.92488        1.76219
C         -6.56414       -0.72728        0.49178
H         -7.53517       -1.20311        0.51544
C         -5.42192       -1.09123       -0.14782
C         -4.81594       -2.16670       -0.93572
O         -5.25984       -3.16133       -1.46191
N         -3.44664       -1.77830       -0.97715
H         -2.79707       -2.22817       -1.60579
H         -0.29832        3.52431       -0.17105
H          2.45715        1.38198        0.20828
H          2.23615       -1.68804        0.20143
H          3.87599        1.12802       -1.36457
