26
COMP32_110000.log	Energy: -1336133.8993033
C         -2.38447        0.04919       -0.00665
C         -0.94552       -0.16120        0.17930
C         -0.34478       -1.19962        0.82731
F         -0.99289       -2.17582        1.44898
C          1.07387       -1.13700        0.81769
F          1.81751       -2.04571        1.43457
C          1.56587       -0.05138        0.15388
S          0.25921        0.90652       -0.47712
C          2.95764        0.31249       -0.03256
S          3.52833        1.95132        0.11597
C          5.15322        1.49519       -0.24150
H          5.94707        2.22595       -0.27931
C          5.24780        0.15719       -0.44352
F          6.36756       -0.49680       -0.73426
C          3.99903       -0.51809       -0.32944
F          3.88822       -1.82582       -0.52311
C         -2.99277        1.28111        0.24654
F         -2.25965        2.31255        0.66909
C         -4.35761        1.46049        0.06878
F         -4.89130        2.65452        0.32600
C         -5.16072        0.41671       -0.35972
H         -6.22590        0.55753       -0.49536
C         -4.57072       -0.80949       -0.61467
F         -5.31211       -1.83326       -1.03714
C         -3.20393       -0.99270       -0.44966
F         -2.67770       -2.18147       -0.73320
