29
COMP42_140001.log	Energy: -1434459.2902666
C          2.19005        0.67675       -0.00050
C          0.75216        0.82269        0.00000
C          0.04017        1.99199        0.00153
F          0.58882        3.21982        0.00227
C         -1.36315        1.85525        0.00149
O         -2.23045        2.89570        0.00316
C         -1.75013        0.53687        0.00011
S         -0.36027       -0.52153       -0.00114
C         -3.10262        0.02535        0.00009
S         -4.50858        1.07011        0.00027
C         -5.59319       -0.27028       -0.00046
H         -6.66389       -0.13062       -0.00024
C         -4.90704       -1.43723       -0.00084
F         -5.44389       -2.66751       -0.00072
C         -3.49247       -1.29086       -0.00061
O         -2.62533       -2.32672       -0.00253
C          2.98419       -0.44303       -0.00135
C          2.80876       -1.91528        0.00079
O          1.80648       -2.59142        0.00056
N          4.11671       -2.42084        0.00475
H          4.31118       -3.41190        0.00300
C          5.12636       -1.45033        0.00130
O          6.31342       -1.66506        0.00091
C          4.37759       -0.16595       -0.00169
C          4.68093        1.15351       -0.00203
H          5.65077        1.63134       -0.00138
S          3.23198        2.09411       -0.00307
H         -1.72935        3.72171        0.00276
H         -3.12281       -3.15518        0.00789
