38
COMP47_330000.log	Energy: -1520244.0645696
C          3.20156        0.68971       -0.11369
C          1.77082        0.95574       -0.06284
C          1.11847        2.17721       -0.02916
C          1.74943        3.45660       -0.01135
N          2.23190        4.51080        0.00360
C         -0.30737        2.05828       -0.00740
C         -1.16564        3.19610        0.01893
N         -1.87825        4.11071        0.04350
C         -0.73657        0.74495       -0.02231
S          0.61256       -0.33432       -0.05547
C         -2.06590        0.15776       -0.00990
C         -3.21813        0.83868        0.14117
C         -4.55069        0.25839        0.13935
C         -5.00610       -1.01826       -0.13786
C         -4.17395       -2.11068       -0.51892
N         -3.48714       -2.99326       -0.82578
C         -6.43229       -1.13995       -0.01579
C         -7.15310       -2.35143       -0.24898
N         -7.74314       -3.33067       -0.43572
C         -7.02869        0.03685        0.34475
H         -8.08388        0.21082        0.50141
S         -5.88493        1.29142        0.54004
C          3.88079       -0.49765        0.01586
C          3.57433       -1.93343        0.26204
O          2.50472       -2.48179        0.40950
N          4.81429       -2.57478        0.28951
C          4.97614       -3.99792        0.50332
C          5.90052       -1.71336        0.07843
O          7.05795       -2.05187        0.05726
C          5.28513       -0.37363       -0.09851
C          5.71103        0.89377       -0.32428
H          6.71956        1.26445       -0.44747
S          4.37035        1.97006       -0.39431
H         -2.08888       -0.92098       -0.13179
H         -3.19150        1.91430        0.28561
H          3.98316       -4.42889        0.63442
H          5.58110       -4.17732        1.39518
H          5.46900       -4.45370       -0.35865
