56
COMP82_440002.log	Energy: -1574130.3009138
C          0.93038        0.35999        0.19662
C          2.38389        0.43854        0.33754
C          3.10335        1.33432        1.08108
O          2.65305        2.34863        1.87373
C          4.50939        1.13142        1.02169
O          5.38543        1.91093        1.70008
C          4.87618        0.07600        0.22783
S          3.45664       -0.68467       -0.45409
C          6.21495       -0.39789       -0.04834
S          7.64033        0.36722        0.62120
C          8.69260       -0.75892       -0.16750
H          9.76421       -0.68517       -0.04407
C          7.98906       -1.66359       -0.89731
O          8.42553       -2.70666       -1.66040
C          6.57815       -1.46121       -0.83216
O          5.69781       -2.25368       -1.48988
C          0.27347       -0.87229        0.07841
C         -1.11052       -0.96217       -0.03879
C         -1.88862        0.19731       -0.02280
C         -3.32455        0.50419       -0.17752
C         -3.40180        2.02330       -0.26647
O         -4.33387        2.76823       -0.48700
N         -2.11992        2.45775       -0.01770
O         -1.75423        3.77006       -0.03843
C         -1.62965        4.24195       -1.38560
C         -1.20033        1.42296        0.06374
C          0.16756        1.54307        0.17709
C         -4.43145       -0.29003       -0.15848
C         -4.38136       -1.75741        0.24525
O         -3.44543       -2.50359        0.44058
N         -5.69813       -2.12113        0.43581
O         -6.06473       -3.43610        0.53201
C         -6.01974       -3.86060        1.89499
C         -6.58660       -1.16140       -0.03832
C         -7.95400       -1.28921       -0.17520
C         -8.64432       -0.19302       -0.69181
H         -9.72094       -0.25425       -0.81907
C         -7.96630        0.96735       -1.05483
C         -6.58297        1.07220       -0.90948
C         -5.86375       -0.00229       -0.38283
H          1.71812        2.20782        2.07637
H          4.87159        2.53650        2.23062
H          9.38793       -2.74874       -1.63888
H          6.20332       -2.92507       -1.96933
H          0.85670       -1.78759        0.09629
H         -1.58242       -1.92847       -0.12585
H         -1.26701        5.26600       -1.29011
H         -2.60274        4.23097       -1.88291
H         -0.90450        3.63645       -1.94008
H          0.63137        2.52387        0.18393
H         -6.36472       -4.89548        1.87741
H         -6.68697       -3.25004        2.51277
H         -4.99617       -3.81248        2.27602
H         -8.45196       -2.21401        0.09194
H         -8.51697        1.80808       -1.46392
H         -6.07075        1.97651       -1.19802
