23
COMP24_100000.log	Energy: -1231850.2020413
C          1.28456        0.85346        0.28679
C         -0.13625        0.50772        0.18411
C         -0.76097       -0.63048        0.60351
F         -0.15213       -1.63650        1.22141
C         -2.16002       -0.63323        0.35724
S         -3.46185       -1.73641        0.64739
C         -4.59095       -0.61917       -0.06485
H         -5.64125       -0.86090       -0.13657
C         -3.98725        0.52047       -0.48888
F         -4.61922        1.53913       -1.06921
C         -2.58414        0.52864       -0.25100
S         -1.28123        1.62815       -0.53769
C          2.29924       -0.08401       -0.10577
N          2.09430       -1.30447       -0.60048
S          3.56446       -1.93783       -0.88082
N          4.51415       -0.70768       -0.40227
C          3.69299        0.26417        0.00111
C          4.08408        1.54746        0.47956
H          5.13675        1.79475        0.55456
C          3.09755        2.42340        0.82285
H          3.35508        3.41172        1.19032
C          1.71335        2.07828        0.73108
H          0.97722        2.81287        1.04448
