50
COMP82_110000.log	Energy: -1540108.6320561
C          0.69314        0.52382        0.19813
C          2.15332        0.65107        0.21613
C          2.92195        1.73981        0.51371
F          2.45539        2.93919        0.86521
C          4.31589        1.49964        0.43669
F          5.20766        2.45446        0.70491
C          4.64403        0.22361        0.07775
S          3.18566       -0.69516       -0.17983
C          5.96541       -0.34186       -0.09211
S          7.42583        0.58236        0.14804
C          8.43167       -0.76654       -0.23435
H          9.50806       -0.68285       -0.22163
C          7.68857       -1.86171       -0.52871
F          8.17099       -3.05471       -0.86229
C          6.29021       -1.62075       -0.44796
F          5.39489       -2.57523       -0.70404
C          0.08055       -0.72483        0.34979
C         -1.30326       -0.87082        0.32363
C         -2.11878        0.24784        0.15596
C         -3.56945        0.48199        0.01774
C         -3.69437        1.97955       -0.21723
O         -4.68927        2.66697       -0.35138
N         -2.41946        2.49562       -0.20468
C         -2.12491        3.89658       -0.37571
C         -1.47883        1.49517       -0.00500
C         -0.10878        1.66131        0.01314
C         -4.64427       -0.35498        0.08115
C         -4.54444       -1.79588        0.56208
O         -3.57935       -2.41252        0.97518
N         -5.81000       -2.32544        0.50573
C         -6.12848       -3.67438        0.90137
C         -6.72110       -1.39268        0.02384
C         -8.07013       -1.60235       -0.20033
C         -8.81222       -0.54107       -0.71881
H         -9.87404       -0.67382       -0.90338
C         -8.20220        0.67592       -1.00236
C         -6.84121        0.87237       -0.76739
C         -6.07447       -0.16559       -0.23550
H          0.68832       -1.60924        0.51567
H         -1.74412       -1.84587        0.45762
H         -3.07527        4.41841       -0.49082
H         -1.51040        4.05636       -1.26818
H         -1.59632        4.28841        0.49949
H          0.33487        2.63906       -0.12607
H         -5.20826       -4.13908        1.25647
H         -6.52152       -4.24343        0.05194
H         -6.87093       -3.67344        1.70633
H         -8.53255       -2.56028        0.01341
H         -8.78941        1.49273       -1.40936
H         -6.38463        1.82622       -0.97862
