48
COMP92_210002.log	Energy: -2131762.2120243
C          0.72776       -0.10146        0.06778
C         -0.73605       -0.06809        0.27777
C         -1.40031        0.06721        1.45931
Cl        -0.64571        0.30919        2.98938
C         -2.81428        0.03219        1.29957
F         -3.63898        0.17554        2.32600
C         -3.22552       -0.14878        0.01195
S         -1.84180       -0.28404       -1.03382
C         -4.59007       -0.24813       -0.47427
S         -5.16613        0.62503       -1.86477
C         -6.74627       -0.04020       -1.71489
H         -7.52608        0.21569       -2.41744
C         -6.83859       -0.87400       -0.64415
Cl        -8.26128       -1.72534       -0.16811
C         -5.60393       -0.99169        0.05778
F         -5.46795       -1.77436        1.11837
C          1.32986       -1.37585       -0.05196
C          2.68630       -1.51143       -0.20611
C          3.26699       -2.87700       -0.33280
O          2.60657       -3.88949       -0.30172
N          4.65837       -2.91170       -0.47917
O          5.20350       -4.14162       -0.72708
C          5.56963       -4.79392        0.49087
C          5.55206       -1.83287       -0.49593
O          6.74533       -2.00235       -0.59515
C          4.91996       -0.49058       -0.36939
C          5.71911        0.62874       -0.38519
H          6.79170        0.50694       -0.48998
C          5.14202        1.90581       -0.26644
C          3.77928        2.04724       -0.13587
C          3.21810        3.41724       -0.00744
O          3.89048        4.42319       -0.02348
N          1.82868        3.46462        0.11602
O          1.28582        4.70271        0.32369
C          0.99485        5.35081       -0.91697
C          0.91190        2.40361        0.07767
O         -0.27605        2.62438        0.07464
C          1.52036        1.03778        0.01737
C          2.92933        0.91222       -0.11823
C          3.51613       -0.36849       -0.23349
H          0.71196       -2.26718       -0.01459
H          6.00109       -5.74333        0.17290
H          4.68614       -4.97502        1.10983
H          6.31892       -4.20778        1.03096
H          5.75806        2.79858       -0.27313
H          0.54513        6.30148       -0.62968
H          0.27969        4.76273       -1.49914
H          1.91548        5.52904       -1.48008
