34
COMP57_210400.log	Energy: -2249977.0600160
C         -2.14630       -0.01689        0.38769
C         -0.78051        0.46454        0.31816
C         -0.31995        1.74556        0.41323
F         -1.11022        2.79492        0.60136
C          1.09082        1.87719        0.30272
Cl         1.86820        3.41172        0.41548
C          1.73644        0.67900        0.12544
S          0.57024       -0.61364        0.05074
C          3.16463        0.47216        0.00678
C          3.75216       -0.72834       -0.14693
C          5.17137       -1.00599       -0.27027
C          6.29364       -0.21161       -0.23917
Cl         6.33925        1.49966       -0.02347
C          7.50061       -0.95065       -0.40454
F          8.68676       -0.35436       -0.40171
C          7.31612       -2.28613       -0.55973
H          8.07286       -3.04315       -0.70030
S          5.64130       -2.66883       -0.50440
C         -2.62688       -1.09691        1.10017
O         -1.92715       -1.91740        1.90216
N         -3.95190       -1.35797        0.97551
C         -4.51113       -0.48718        0.18000
S         -3.46265        0.71848       -0.48113
C         -5.92963       -0.49798       -0.13809
S         -6.99258       -1.68894        0.53362
C         -8.28839       -0.95132       -0.33188
H         -9.29786       -1.33251       -0.27180
C         -7.81880        0.11871       -1.04737
O         -8.51641        0.94942       -1.84691
N         -6.48673        0.37068       -0.93563
H          3.75695        1.37885        0.04941
H          3.12123       -1.61611       -0.18835
H         -1.03379       -1.56689        2.02339
H         -9.44175        0.67824       -1.85303
