46
COMP71_200013.log	Energy: -2437573.2301227
C         -0.03191       -2.02311        0.14580
C          1.31576       -1.46238        0.10383
C          1.88174       -0.57468        0.95913
Cl         1.07393        0.10031        2.32618
C          3.24796       -0.23934        0.64426
C          4.10489        0.63422        1.31133
H          3.76669        1.17578        2.18849
C          5.38865        0.78137        0.80911
S          6.64919        1.81090        1.45706
C          7.75270        1.30209        0.21146
H          8.75821        1.69798        0.17874
C          7.20329        0.41178       -0.64122
Cl         8.04793       -0.28283       -1.98625
C          5.83190        0.07691       -0.33817
C          4.97495       -0.79593       -1.00529
H          5.31079       -1.33476       -1.88518
C          3.69141       -0.94272       -0.50226
S          2.43269       -1.96429       -1.15510
C         -1.24869       -1.38865        0.06223
C         -1.45934        0.05879       -0.19138
O         -0.56580        0.82119       -0.49613
C         -2.88681        0.49320       -0.12898
C         -3.30436        1.79863       -0.20683
C         -2.49205        3.04891       -0.10722
O         -1.64727        3.24935        0.72453
O         -2.89023        3.93825       -1.02603
C         -2.20923        5.19559       -0.98461
S         -5.01722        1.90691       -0.31161
C         -5.19862        0.19649       -0.23708
C         -6.55822       -0.39517       -0.40810
O         -6.81568       -1.34203       -1.10259
O         -7.46511        0.32828        0.26519
C         -8.81967       -0.10227        0.10806
C         -3.98249       -0.43223       -0.11915
C         -3.77278       -1.88676        0.13079
O         -4.67803       -2.66833        0.33967
C         -2.34948       -2.29849        0.17715
C         -1.95392       -3.59491        0.33662
H         -2.59895       -4.45729        0.43641
S         -0.24927       -3.73361        0.36024
H         -2.64384        5.78817       -1.78825
H         -1.13933        5.04883       -1.14673
H         -2.36356        5.68112       -0.01810
H         -9.41579        0.58680        0.70451
H         -8.93536       -1.12568        0.47142
H         -9.11379       -0.05857       -0.94333
