30
COMP52_240100.log	Energy: -2201428.4205454
C          1.26447       -0.12405        0.00013
C         -0.09495        0.37380        0.00007
C         -0.56724        1.66342       -0.00024
Cl         0.39992        3.10725       -0.00016
C         -1.98457        1.77119       -0.00052
O         -2.67315        2.93312       -0.00109
C         -2.61158        0.55039       -0.00055
S         -1.43774       -0.73692       -0.00030
C         -4.03621        0.29743       -0.00032
S         -5.22489        1.57844        0.00090
C         -6.53072        0.46123        0.00121
H         -7.55641        0.80043        0.00194
C         -6.08078       -0.82045        0.00014
Cl        -7.08542       -2.23826       -0.00001
C         -4.65856       -0.92782       -0.00075
O         -3.96823       -2.08815       -0.00229
C          1.67399       -1.43826        0.00112
F          0.82743       -2.46003        0.00178
N          2.98875       -1.70633        0.00119
C          3.65871       -0.58339        0.00053
S          2.70307        0.85963       -0.00032
C          5.10836       -0.52304        0.00028
S          6.06953       -1.96695       -0.00073
C          7.48097       -0.98206       -0.00067
H          8.47978       -1.39069       -0.00121
C          7.10400        0.32687        0.00015
F          7.95134        1.34346        0.00026
N          5.77977        0.59813        0.00068
H         -2.05442        3.67685        0.00170
H         -4.58774       -2.83158       -0.00015
