32
COMP51_300210.log	Energy: -2146097.5729596
C          0.94032        0.67257        0.18769
C         -0.49791        0.44247        0.12766
C         -1.18124       -0.63941        0.61592
C         -0.58394       -1.70846        1.34649
N         -0.14520       -2.59976        1.94498
C         -2.60126       -0.59238        0.35053
C         -3.57464       -1.52093        0.71538
H         -3.30523       -2.41808        1.26413
C         -4.88316       -1.24714        0.34869
S         -6.28956       -2.23873        0.67618
C         -7.32200       -1.10874       -0.12654
H         -8.38489       -1.29821       -0.19479
C         -6.66036       -0.03009       -0.62384
C         -7.28880        1.04095       -1.32643
N         -7.76345        1.92883       -1.90155
C         -5.23481       -0.07524       -0.36577
C         -4.26183        0.85420       -0.72682
H         -4.53127        1.75377       -1.27153
C         -2.95192        0.57834       -0.36336
S         -1.55043        1.56807       -0.69314
C          1.63957        1.78701        0.58765
Cl         0.92013        3.23796        1.18081
N          2.99081        1.71613        0.53397
C          3.35940        0.54664        0.08592
S          2.07841       -0.54673       -0.29896
C          4.75178        0.16364       -0.08362
S          6.04594        1.23993        0.33353
C          7.15745        0.02784       -0.16545
H          8.22680        0.17056       -0.11859
C          6.47161       -1.06984       -0.59704
Cl         7.22059       -2.51039       -1.18390
N          5.11542       -0.99746       -0.55324
