46
COMP75_000012.log	Energy: -1302168.4685658
C         -0.26479        1.80131        0.01124
C         -1.64579        1.30017        0.15683
C         -2.10676        0.26025       -0.64704
C         -3.43162       -0.13304       -0.50585
N         -4.12289       -1.12551       -1.17505
H         -3.71776       -1.76405       -1.83821
C         -5.42415       -1.17088       -0.71333
C         -6.47212       -2.01144       -1.08793
C         -7.69595       -1.83292       -0.45843
H         -8.52936       -2.47359       -0.73128
C         -7.87909       -0.84386        0.52022
C         -6.83195       -0.01204        0.88853
C         -5.59007       -0.17187        0.27154
C         -4.31088        0.49339        0.40437
C         -3.83642        1.53687        1.19851
C         -2.51539        1.93328        1.07062
C          0.95749        1.16232       -0.04702
C          1.20173       -0.30015        0.10079
O          0.30859       -1.12242        0.22018
C          2.62934       -0.68646        0.09146
C          3.07183       -1.97193        0.24026
O          2.31208       -3.04988        0.41623
C          2.94245       -4.30298        0.60671
S          4.82932       -2.07864        0.16487
C          4.94551       -0.33918       -0.07543
O          6.11397        0.27857       -0.22098
C          7.30225       -0.48900       -0.15942
C          3.71558        0.25594       -0.09065
C          3.48255        1.69761       -0.25925
O          4.36751        2.52163       -0.42112
C          2.05005        2.08649       -0.20285
C          1.65021        3.38719       -0.26807
H          2.29116        4.25075       -0.37943
S         -0.05082        3.52087       -0.14277
H         -1.44120       -0.23295       -1.34445
H         -6.33759       -2.77771       -1.84557
H         -8.85026       -0.73090        0.99161
H         -6.97383        0.75270        1.64701
H         -4.48902        2.03045        1.91252
H         -2.13239        2.73070        1.70017
H          2.13632       -5.02330        0.74103
H          3.57739       -4.29398        1.50121
H          3.53862       -4.58285       -0.27100
H          8.11784        0.21878       -0.30211
H          7.32647       -1.24226       -0.95654
H          7.40674       -0.97659        0.81762
