46
COMP81_100011.log	Energy: -1414110.6614047
C          0.35499       -0.05202       -0.00866
C          1.82053       -0.09995       -0.04136
C          2.71181        0.86127        0.30728
F          2.36980        2.07341        0.76400
C          4.09690        0.51294        0.17946
C          5.21565        1.29134        0.47248
H          5.10264        2.30211        0.84958
C          6.45998        0.71612        0.26339
S          8.02521        1.45597        0.54086
C          8.84662        0.01125        0.00650
H          9.92566       -0.04047       -0.01037
C          7.98152       -0.95587       -0.35433
F          8.34024       -2.16196       -0.80120
C          6.59233       -0.60604       -0.22687
C          5.47270       -1.38473       -0.51620
H          5.58528       -2.39676       -0.89014
C          4.22933       -0.81044       -0.30503
S          2.66740       -1.54860       -0.58180
C         -0.39548       -1.22535        0.13373
C         -1.78599       -1.20779        0.16897
C         -2.47036        0.00407        0.06704
C         -3.89029        0.40515       -0.00019
C         -3.85654        1.91245       -0.22363
O         -4.76360        2.71388       -0.32531
N         -2.53003        2.26588       -0.24415
H         -2.23941        3.22342       -0.36328
C         -1.69291        1.17002       -0.09761
C         -0.31389        1.17475       -0.13445
C         -5.04794       -0.30345        0.13198
C         -5.08603       -1.74311        0.63347
O         -4.18293       -2.47959        0.97797
N         -6.41088       -2.09244        0.68981
H         -6.70460       -3.00245        1.00741
C         -7.24222       -1.07153        0.24908
C         -8.61879       -1.11201        0.12304
C         -9.25445        0.02088       -0.38259
H        -10.33465        0.02138       -0.49371
C         -8.51604        1.14131       -0.75127
C         -7.12896        1.16767       -0.61326
C         -6.46393        0.05447       -0.09401
H          0.11213       -2.17866        0.24380
H         -2.33134       -2.12926        0.29748
H          0.23257        2.09947       -0.27336
H         -9.17962       -1.99878        0.40129
H         -9.02209        2.01402       -1.15092
H         -6.57149        2.04832       -0.89060
