44
COMP61_400031.log	Energy: -1428544.6704807
C          2.93269        0.78118       -0.09893
C          1.53444        0.54300        0.02432
C          0.86998       -0.66228       -0.13210
O          1.36353       -1.84716       -0.42335
C         -0.57091       -0.49983       -0.09028
C         -1.53545       -1.50775       -0.17601
C         -1.19518       -2.96932       -0.16090
O         -1.53509       -3.74844       -1.01880
O         -0.54955       -3.29722        0.95667
C         -0.07877       -4.64424        1.01688
C         -2.86842       -1.11935       -0.24823
S         -4.23218       -2.18866       -0.46963
C         -5.32179       -0.83330       -0.40043
H         -6.38234       -0.99463       -0.54477
C         -4.70315        0.36028       -0.22981
O         -5.27656        1.58430       -0.23355
C         -3.26651        0.23369       -0.10377
C         -2.30059        1.23088        0.10385
C         -2.66952        2.62062        0.52203
O         -3.43659        2.88541        1.41142
O         -1.97427        3.53726       -0.16995
C         -2.19288        4.89240        0.22795
C         -0.96084        0.85130        0.03787
S          0.42460        1.90821        0.19669
C          4.01793       -0.07742       -0.03423
C          4.37477       -1.43273        0.26436
O          3.69357       -2.44010        0.51262
N          5.77102       -1.42223        0.22243
H          6.31758       -2.25365        0.38497
C          6.27731       -0.15915       -0.05045
H          7.34264        0.01665       -0.08630
C          5.22357        0.67740       -0.21676
C          4.85807        2.08172       -0.42733
O          5.49911        3.08037       -0.65453
N          3.44062        2.05226       -0.30810
H          2.88448        2.86486       -0.53208
H          2.27205       -2.05980       -0.03430
H          0.38522       -4.74757        1.99665
H          0.65765       -4.81334        0.22747
H         -0.90585       -5.34834        0.90285
H         -6.23337        1.48933       -0.30878
H         -1.54583        5.49266       -0.41021
H         -1.93363        5.02984        1.28027
H         -3.24050        5.16295        0.07862
