32
COMP52_320400.log	Energy: -2192638.8480299
C          1.42758       -0.22608       -0.15847
C          0.05539        0.23670       -0.13347
C         -0.47332        1.42489       -0.59896
C          0.29059        2.43104       -1.26001
N          0.90980        3.24983       -1.79831
C         -1.88716        1.51994       -0.39010
Cl        -2.80500        2.88290       -0.90348
C         -2.43092        0.42308        0.21368
S         -1.18882       -0.73433        0.58827
C         -3.82812        0.16808        0.55106
S         -4.61423        1.01221        1.85065
C         -6.08449        0.18435        1.58984
H         -6.95623        0.38950        2.19553
C         -5.99630       -0.71324        0.55846
C         -7.08161       -1.53670        0.13153
N         -7.96850       -2.20174       -0.20521
C         -4.69185       -0.71648       -0.03425
Cl        -4.27748       -1.72649       -1.36687
C          1.88453       -1.50564       -0.42363
O          1.15867       -2.58216       -0.76008
N          3.22318       -1.69257       -0.33685
C          3.81530       -0.57546       -0.01113
S          2.79013        0.79844        0.20464
C          5.25395       -0.45851        0.15932
S          6.30474       -1.81167       -0.08629
C          7.63385       -0.78961        0.30953
H          8.64935       -1.15938        0.31588
C          7.18176        0.47398        0.59084
O          7.90670        1.55276        0.94228
N          5.83704        0.65568        0.50496
H          0.25024       -2.32415       -0.96890
H          8.84112        1.31523        0.96211
