30
COMP52_030100.log	Energy: -1646000.0430906
C          0.88626       -0.12910       -0.11489
C         -0.50485        0.27014       -0.05299
C         -0.99929        1.52662        0.17914
H         -0.38583        2.40336        0.34950
C         -2.42042        1.56733        0.18913
C         -3.15083        2.76948        0.44212
N         -3.72182        3.75735        0.64727
C         -3.00353        0.33426       -0.03501
S         -1.79291       -0.87575       -0.26922
C         -4.42056        0.00434       -0.11514
S         -5.52313        0.99997       -0.99914
C         -6.85197       -0.02412       -0.62745
H         -7.84180        0.22142       -0.98649
C         -6.48170       -1.09062        0.13177
H         -7.16003       -1.85657        0.48490
C         -5.08497       -1.08067        0.42842
C         -4.46103       -2.07945        1.23787
N         -3.97551       -2.90135        1.89597
C          1.42498       -1.36107       -0.38352
F          0.68615       -2.43107       -0.63973
N          2.76405       -1.48916       -0.38820
C          3.30973       -0.33362       -0.11780
S          2.20244        0.97250        0.15908
C          4.74282       -0.11751       -0.04461
S          5.87338       -1.40532       -0.30516
C          7.15156       -0.28519       -0.03823
H          8.19348       -0.56313       -0.08186
C          6.61669        0.94127        0.21984
F          7.33187        2.02560        0.46788
N          5.27014        1.04876        0.21921
