29
COMP22_040200.log	Energy: -1827052.5627842
C         -1.60234       -0.11709        0.14131
C         -0.16299       -0.34427        0.32655
C          0.43171       -1.26044        1.15073
H         -0.12185       -1.93662        1.79307
C          1.84544       -1.22121        1.07653
O          2.68734       -2.00937        1.79922
C          2.33419       -0.28430        0.19244
S          1.01520        0.58183       -0.54217
C          3.72117       -0.00926       -0.12400
S          5.04867       -0.87199        0.61377
C          6.20801        0.02722       -0.28051
H          7.26338       -0.16717       -0.14908
C          5.63055        0.94447       -1.10515
H          6.18432        1.61403       -1.75481
C          4.21000        0.92059       -1.01319
O          3.36857        1.72309       -1.71879
C         -2.14795        1.20238        0.31634
N         -1.45103        2.28945        0.64723
S         -2.51488        3.51364        0.72678
N         -3.89251        2.73134        0.35793
C         -3.55166        1.45822        0.15475
C         -4.44019        0.40234       -0.17667
H         -5.49975        0.59155       -0.29389
C         -3.91459       -0.84320       -0.33738
Cl        -4.99845       -2.13981       -0.74260
C         -2.50080       -1.10887       -0.18948
Cl        -1.94707       -2.72831       -0.48218
H          2.17630       -2.67453        2.27339
H          3.88174        2.30043       -2.29463
