50
COMP71_300002.log	Energy: -1883632.0598546
C          0.65043        1.80843        0.32150
C         -0.69978        1.25637        0.22741
C         -1.21468        0.20534        0.93205
C         -0.41624       -0.48551        1.89202
N          0.24402       -1.01695        2.68352
C         -2.60313       -0.07854        0.62039
C         -3.43102       -1.08756        1.13458
C         -2.94696       -2.10148        2.13729
C         -4.73620       -1.09525        0.65000
S         -5.97062       -2.24681        1.13667
C         -7.12404       -1.51484        0.09058
H         -8.13084       -1.90593        0.02971
C         -6.63307       -0.45166       -0.60206
C         -7.46461        0.26976       -1.51256
N         -8.16196        0.83782       -2.24487
C         -5.23653       -0.17203       -0.30299
C         -4.40680        0.83090       -0.82367
C         -4.88812        1.83221       -1.84061
C         -3.10263        0.84073       -0.33696
S         -1.86706        1.97787       -0.83688
C          1.86566        1.19440        0.12500
C          2.07233       -0.20419       -0.35930
O          1.14673       -0.93013       -0.67604
C          3.48603       -0.60968       -0.43134
C          3.90156       -1.87034       -0.76182
O          3.11854       -2.89048       -1.09036
C          3.70285       -4.16930       -1.26726
S          5.65703       -2.01774       -0.72417
C          5.80988       -0.32750       -0.25409
O          6.99079        0.24649       -0.05551
C          8.15821       -0.55443       -0.11859
C          4.59223        0.28252       -0.13776
C          4.39434        1.68601        0.25019
O          5.29496        2.47818        0.46826
C          2.96458        2.08039        0.36872
C          2.56928        3.33586        0.72802
H          3.21588        4.17105        0.96037
S          0.86547        3.46784        0.79092
H         -2.05445       -2.61915        1.77564
H         -3.70785       -2.85898        2.34212
H         -2.68508       -1.62799        3.08842
H         -5.22177        1.33846       -2.75816
H         -4.10106        2.53938       -2.11408
H         -5.73368        2.41158       -1.45844
H          2.88004       -4.83922       -1.51305
H          4.19138       -4.50828       -0.34621
H          4.42496       -4.16034       -2.09316
H          8.98882        0.11890        0.08866
H          8.28186       -0.99184       -1.11706
H          8.13043       -1.34838        0.63706
