50
COMP71_000022.log	Energy: -1862259.8046842
C         -0.46795       -1.74244       -0.29767
C          0.87996       -1.19882       -0.17872
C          1.35889       -0.02590       -0.66330
H          0.74829        0.67643       -1.20972
C          2.74809        0.18078       -0.37458
C          3.54028        1.28941       -0.69328
O          3.03513        2.36755       -1.36071
C          2.23226        3.22794       -0.55496
C          4.87790        1.25699       -0.32136
S          6.05762        2.51436       -0.60469
C          7.28335        1.57058        0.20155
H          8.28212        1.97636        0.29532
C          6.84333        0.37602        0.65548
H          7.45793       -0.33432        1.19466
C          5.44871        0.15679        0.36522
C          4.65272       -0.94600        0.69128
O          5.16548       -2.01607        1.37467
C          5.77031       -2.98859        0.53108
C          3.31521       -0.91405        0.32153
S          2.12331       -2.14441        0.65110
C         -1.71296       -1.13798       -0.25692
C         -2.00607        0.30579       -0.03117
O         -1.14548        1.16901        0.04122
C         -3.44198        0.62769        0.09531
C         -3.91999        1.88387        0.35180
O         -3.19172        2.98294        0.52481
C         -3.84869        4.18411        0.88804
S         -5.68086        1.92029        0.41419
C         -5.74963        0.19413        0.07705
O         -6.90003       -0.46551       -0.00738
C         -8.11163        0.25648        0.12369
C         -4.50275       -0.34667       -0.06422
C         -4.22744       -1.76231       -0.34023
O         -5.08724       -2.61324       -0.49609
C         -2.77956       -2.09395       -0.39645
C         -2.34214       -3.37510       -0.54659
H         -2.96048       -4.25458       -0.66105
S         -0.63530       -3.46170       -0.52456
H          1.93282        4.05387       -1.20173
H          2.81175        3.61493        0.29174
H          1.33990        2.71338       -0.18123
H          6.11476       -3.79152        1.18467
H          6.62385       -2.56279       -0.01098
H          5.04790       -3.38718       -0.19158
H         -3.06361        4.93272        0.98740
H         -4.37183        4.07184        1.84524
H         -4.55518        4.49898        0.11006
H         -8.90664       -0.47940        0.01037
H         -8.20216        1.01873       -0.65971
H         -8.18625        0.72583        1.11237
