56
COMP87_140000.log	Energy: -1558532.5284957
C         -0.15074       -0.42730       -0.05693
C          1.30188       -0.59423       -0.15481
C          1.97711       -1.68489       -0.64420
O          1.45392       -2.82723       -1.14628
C          3.38643       -1.50240       -0.61827
F          4.20750       -2.45884       -1.06145
C          3.80675       -0.29703       -0.12593
S          2.41856        0.65109        0.32388
C          5.14132        0.24104        0.05306
C          6.28074       -0.39558       -0.28075
C          7.61386        0.14799       -0.10408
C          8.03989        1.33925        0.41231
F          7.23407        2.30697        0.89290
C          9.44932        1.53847        0.42617
O         10.04123        2.65868        0.90079
C         10.11022        0.46652       -0.09364
H         11.17698        0.34583       -0.20702
S          9.01029       -0.76817       -0.59357
C         -0.76995        0.78272       -0.38628
C         -2.15077        0.94290       -0.31143
C         -2.95882       -0.12072        0.09248
C         -4.41129       -0.34926        0.22515
C         -4.53113       -1.79774        0.67189
O         -5.51935       -2.44961        0.95047
N         -3.25071       -2.29591        0.76784
C         -2.94810       -3.64282        1.18372
C         -2.31682       -1.33633        0.40941
C         -0.94635       -1.51158        0.35512
C         -5.48998        0.46464        0.04054
C         -5.36783        1.97018       -0.15328
O         -4.37539        2.67519       -0.16461
N         -6.64382        2.46325       -0.27077
C         -6.94358        3.86085       -0.45719
C         -7.58284        1.44040       -0.20610
C         -8.95335        1.57384       -0.33953
C         -9.72505        0.41331       -0.28035
H        -10.80376        0.48578       -0.38175
C         -9.12356       -0.82749       -0.10124
C         -7.74035       -0.94458        0.03708
C         -6.94210        0.19990       -0.00176
H          0.50589       -2.69304       -1.28649
H          5.19507        1.23399        0.48882
H          6.22878       -1.38705       -0.71917
H          9.34940        3.26098        1.20435
H         -0.16234        1.61537       -0.72702
H         -2.59674        1.89203       -0.56287
H         -3.89417       -4.13995        1.39934
H         -2.32540       -3.63816        2.08456
H         -2.42489       -4.18514        0.38837
H         -0.49136       -2.44285        0.67924
H         -5.99811        4.40376       -0.44486
H         -7.58582        4.22739        0.35039
H         -7.44548        4.02372       -1.41716
H         -9.41110        2.54567       -0.49165
H         -9.73422       -1.72380       -0.06344
H         -7.28966       -1.91227        0.18895
