54
COMP87_120000.log	Energy: -2040943.5268476
C          0.48859       -0.58044       -0.11708
C         -0.96276       -0.79972       -0.19374
C         -1.67066       -1.91852       -0.55031
Cl        -0.99801       -3.42553       -1.06522
C         -3.07659       -1.71924       -0.52194
F         -3.92115       -2.69691       -0.85116
C         -3.47269       -0.46453       -0.14585
S         -2.05888        0.48966        0.18975
C         -4.79568        0.11192        0.00278
C         -5.94907       -0.52740       -0.27036
C         -7.27281        0.04968       -0.12290
C         -7.67057        1.27987        0.32924
F         -6.83052        2.22713        0.74587
C         -9.07827        1.48389        0.32417
Cl        -9.80409        2.95816        0.85228
C         -9.75772        0.39786       -0.13579
H        -10.82660        0.28657       -0.24329
S         -8.68114       -0.87324       -0.56348
C          1.05011        0.60251       -0.60769
C          2.41899        0.84660       -0.53089
C          3.26255       -0.10201        0.04501
C          4.72013       -0.23120        0.23690
C          4.90683       -1.61152        0.84747
O          5.92472       -2.17459        1.20385
N          3.65156       -2.15433        0.99970
C          3.40844       -3.45866        1.56398
C          2.67577       -1.29748        0.51086
C          1.31948       -1.55136        0.45871
C          5.75258        0.62886        0.00871
C          5.54777        2.10406       -0.30869
O          4.51511        2.73788       -0.42535
N          6.79626        2.66932       -0.39887
C          7.02079        4.06701       -0.67020
C          7.79144        1.71492       -0.21961
C          9.15654        1.92323       -0.30384
C          9.99105        0.81814       -0.13473
H         11.06726        0.94966       -0.19507
C          9.45566       -0.44402        0.09906
C          8.07698       -0.63609        0.18809
C          7.21716        0.45357        0.04359
H         -4.82592        1.13669        0.35938
H         -5.91887       -1.55004       -0.63285
H          0.41138        1.34299       -1.07897
H          2.82331        1.77146       -0.91056
H          4.37596       -3.89358        1.81571
H          2.89535       -4.10122        0.84054
H          2.79807       -3.37991        2.46981
H          0.90600       -2.47055        0.85696
H          6.04512        4.54626       -0.75581
H          7.57265        4.19507       -1.60773
H          7.58474        4.53152        0.14548
H          9.56352        2.90946       -0.50119
H         10.11619       -1.29658        0.21932
H          7.67518       -1.61787        0.38231
