42
COMP72_410002.log	Energy: -1889626.4938751
C          0.07507       -1.12034        0.48634
C         -1.14760       -0.33818        0.44916
C         -1.46806        0.83935        1.09437
O         -0.67654        1.62554        1.82214
C         -2.85222        1.14740        0.95199
F         -3.36836        2.24901        1.50044
C         -3.59061        0.25442        0.23252
S         -2.55910       -1.02842       -0.33163
C         -4.99885        0.32622       -0.09412
S         -6.02410        1.63488        0.42992
C         -7.40886        0.94057       -0.34055
H         -8.36713        1.43812       -0.28301
C         -7.11276       -0.23079       -0.97023
O         -7.92450       -1.05440       -1.67330
C         -5.73596       -0.56636       -0.81927
F         -5.22968       -1.67801       -1.35816
C          1.42152       -0.79553        0.37968
C          1.99324        0.54087        0.14417
O          1.32580        1.57863        0.16542
C          3.43454        0.57242       -0.12452
C          4.13463        1.71125       -0.42676
O          3.62823        2.93006       -0.55712
C          4.49685        4.00120       -0.88662
S          5.85228        1.38958       -0.64255
C          5.59740       -0.32054       -0.30059
O          6.59274       -1.19907       -0.30495
C          7.91136       -0.73793       -0.54287
C          4.28421       -0.59903       -0.05090
C          3.74824       -1.93047        0.26247
O          4.42547       -2.94019        0.35384
C          2.27208       -1.95748        0.43207
C          1.58617       -3.12086        0.58800
H          2.01150       -4.11357        0.64022
S         -0.10058       -2.84706        0.68090
H          0.18196        1.68271        1.33461
H         -8.81625       -0.68749       -1.67893
H          3.86522        4.88688       -0.93876
H          4.97516        3.83288       -1.85899
H          5.26011        4.13990       -0.11149
H          8.54610       -1.62168       -0.49401
H          8.22152       -0.02023        0.22606
H          7.99608       -0.28183       -1.53689
