50
COMP92_320002.log	Energy: -2122980.2131590
C          0.85504       -0.25173        0.10757
C         -0.58805       -0.43132        0.38965
C         -1.17371       -0.46595        1.63039
C         -0.43587       -0.26272        2.83384
N          0.19740       -0.09859        3.79031
C         -2.58566       -0.68395        1.55742
Cl        -3.58714       -0.74557        2.95685
C         -3.04718       -0.82465        0.27942
S         -1.73753       -0.69434       -0.85585
C         -4.41495       -1.06737       -0.17091
S         -5.18407       -2.60823        0.06345
C         -6.62209       -2.08208       -0.69295
H         -7.47447       -2.73982       -0.79122
C         -6.53440       -0.78355       -1.12069
C         -7.59485       -0.09727       -1.78631
N         -8.46121        0.44890       -2.32808
C         -5.25854       -0.20565       -0.81655
Cl        -4.85378        1.41943       -1.21408
C          1.62262       -1.42233       -0.08923
C          2.97617       -1.35320       -0.30396
C          3.73896       -2.61648       -0.50999
O          3.22861       -3.71257       -0.49427
N          5.11187       -2.44488       -0.71336
O          5.81224       -3.57384       -1.03848
C          6.34859       -4.19791        0.13070
C          5.84033       -1.24747       -0.72836
O          7.03848       -1.23992       -0.88955
C          5.03051       -0.01521       -0.51965
C          5.65820        1.20814       -0.52236
H          6.73120        1.24895       -0.67529
C          4.91041        2.38430       -0.32748
C          3.54967        2.32222       -0.13373
C          2.80305        3.59072        0.07391
O          3.31988        4.68376        0.06645
N          1.42739        3.42980        0.26159
O          0.72742        4.56498        0.56324
C          0.24779        5.20580       -0.62145
C          0.67824        2.24877        0.23402
O         -0.52809        2.28315        0.31338
C          1.47279        0.99083        0.07679
C          2.87523        1.07531       -0.12599
C          3.63160       -0.10270       -0.31968
H          1.14305       -2.39539       -0.06236
H          6.87448       -5.07543       -0.24591
H          5.54461       -4.50699        0.80503
H          7.05235       -3.52900        0.63428
H          5.39214        3.35603       -0.32340
H         -0.28451        6.08493       -0.25795
H         -0.44117        4.54996       -1.16122
H          1.08354        5.51382       -1.25649
