41
COMP41_400002.log	Energy: -1478925.1854362
C          1.88661        1.05789       -0.23434
C          0.49819        0.70962       -0.05554
C         -0.12847       -0.48786       -0.31967
O          0.46042       -1.61236       -0.73135
C         -1.57689       -0.41900       -0.19647
C         -2.53101       -1.43042       -0.39437
C         -2.22645       -2.84985       -0.79563
C         -3.85763       -1.05343       -0.19219
S         -5.21193       -2.14870       -0.38520
C         -6.32752       -0.88248        0.04355
H         -7.39046       -1.08531        0.07086
C         -5.72043        0.29581        0.31580
O         -6.34615        1.44830        0.67510
C         -4.27355        0.24614        0.19254
C         -3.31897        1.25451        0.39489
C         -3.62829        2.66995        0.80656
C         -1.99558        0.87847        0.18286
S         -0.64695        1.97002        0.40060
C          3.04999        0.32679       -0.17184
C          3.45016       -1.03741        0.19234
O          2.78450       -2.02097        0.47367
N          4.84269       -1.01025        0.17936
O          5.57594       -2.14962        0.28044
C          6.04183       -2.33186        1.62031
C          5.41897        0.21549       -0.23065
O          6.59763        0.42486       -0.34446
C          4.23290        1.08402       -0.41950
C          4.00913        2.39331       -0.67452
H          4.72362        3.18085       -0.86994
S          2.31052        2.71823       -0.63807
H          1.31775       -1.77828       -0.26767
H         -1.16076       -3.01997       -0.92204
H         -2.73087       -3.09034       -1.73965
H         -2.60673       -3.54616       -0.03796
H         -7.29751        1.29131        0.70303
H         -4.69457        2.83612        0.94048
H         -3.26066        3.37541        0.05096
H         -3.12109        2.91049        1.74936
H          6.59507       -3.27105        1.59586
H          5.19831       -2.41181        2.31271
H          6.70617       -1.51214        1.90914
