60
COMP91_000003.log	Energy: -1669919.3556315
C         -0.22858       -0.10106        0.05912
C          1.22707       -0.35255        0.11076
C          1.94884       -1.04451       -0.80139
H          1.51308       -1.41726       -1.72104
C          3.33460       -1.20656       -0.43630
C          4.35822       -1.84445       -1.15026
C          4.15154       -2.49417       -2.49126
C          5.60854       -1.85791       -0.53883
S          7.04949       -2.58975       -1.21859
C          7.98414       -2.10632        0.16780
H          9.03641       -2.35409        0.21136
C          7.26567       -1.43672        1.09391
H          7.69846       -1.06296        2.01369
C          5.87809       -1.27152        0.72516
C          4.85340       -0.63360        1.43843
C          5.05689        0.02127        2.77742
C          3.60397       -0.62015        0.82672
S          2.16829        0.10969        1.51247
C         -1.06388       -1.24638        0.09562
C         -2.43058       -1.13880        0.11230
C         -3.25810       -2.37270        0.14300
O         -2.79960       -3.49377        0.11232
N         -4.63912       -2.16940        0.21065
C         -5.46508       -3.36278        0.28591
O         -5.79619       -3.86405        1.31893
O         -5.76197       -3.76412       -0.93656
C         -6.57550       -4.94153       -1.00124
C         -5.31494       -0.94524        0.20911
O         -6.52603       -0.91092        0.23254
C         -4.45506        0.26575        0.17373
C         -5.04246        1.50992        0.18916
H         -6.12362        1.58255        0.23492
C         -4.23986        2.66304        0.14922
C         -2.86848        2.55678        0.08524
C         -2.06006        3.79934        0.03859
O         -2.53124        4.91589        0.08071
N         -0.68566        3.60683       -0.07354
C          0.13146        4.80524       -0.16406
O          0.66372        5.30559        0.78177
O          0.16924        5.21338       -1.41938
C          0.94134        6.39860       -1.64337
C          0.00121        2.38996       -0.18271
O          1.18326        2.39899       -0.44147
C         -0.81727        1.15823        0.01295
C         -2.23365        1.28838        0.06885
C         -3.04684        0.13375        0.11957
H          3.15518       -2.30631       -2.89554
H          4.28653       -3.58037       -2.42201
H          4.88029       -2.12079       -3.22039
H          6.05861       -0.14956        3.17557
H          4.33883       -0.36219        3.51231
H          4.90376        1.10492        2.70605
H         -0.60987       -2.23118        0.12612
H         -6.72510       -5.13050       -2.06271
H         -7.52966       -4.76503       -0.50049
H         -6.06027       -5.77898       -0.52629
H         -4.68462        3.65204        0.16796
H          0.85480        6.60084       -2.70946
H          1.98256        6.22396       -1.36471
H          0.53619        7.22591       -1.05721
