60
COMP81_400031.log	Energy: -1669867.7756019
C          0.68026        0.07354        0.03655
C         -0.78656        0.12890        0.04614
C         -1.64291       -0.92128        0.17986
O         -1.30044       -2.22344        0.31410
C         -3.03682       -0.54450        0.13300
C         -4.17155       -1.35344        0.26730
C         -4.09188       -2.77511        0.73776
O         -3.56742       -3.12741        1.76277
O         -4.74814       -3.59763       -0.09431
C         -4.81668       -4.96049        0.32730
C         -5.41663       -0.75835        0.07031
S         -6.96605       -1.57296        0.10239
C         -7.79210       -0.06368       -0.17706
H         -8.86886       -0.05632       -0.28661
C         -6.95673        0.99377       -0.30016
O         -7.28998        2.26819       -0.60649
C         -5.56282        0.63616       -0.13198
C         -4.43082        1.46021       -0.16212
C         -4.52881        2.95554       -0.13094
O         -5.15056        3.58377        0.68680
O         -3.76944        3.50963       -1.08825
C         -3.71101        4.93642       -1.06859
C         -3.18156        0.84730       -0.08700
S         -1.63097        1.65178       -0.17720
C          1.44454        1.04107        0.69939
C          2.83493        0.99272        0.71201
C          3.50471       -0.04469        0.05990
C          4.92013       -0.37504       -0.20018
C          4.87306       -1.59480       -1.11084
O          5.77137       -2.25326       -1.59439
N          3.54187       -1.89562       -1.27725
H          3.24287       -2.66517       -1.85517
C          2.71684       -0.99198       -0.62681
C          1.33566       -0.96213       -0.65103
C          6.08404        0.17829        0.24520
C          6.13687        1.19598        1.37929
O          5.24050        1.67506        2.04510
N          7.46507        1.47016        1.58388
H          7.76808        2.11613        2.29540
C          8.28457        0.78722        0.69469
C          9.65991        0.88109        0.58478
C         10.28089        0.13302       -0.41436
H         11.35957        0.18588       -0.52707
C          9.52982       -0.66880       -1.26862
C          8.14448       -0.75640       -1.14146
C          7.49446       -0.03186       -0.13958
H         -0.38118       -2.27838        0.61068
H         -5.38696       -5.47578       -0.44453
H         -5.31960       -5.03716        1.29422
H         -3.81276       -5.38288        0.41218
H         -8.25031        2.34542       -0.64935
H         -3.04358        5.21213       -1.88398
H         -3.31727        5.29014       -0.11269
H         -4.70628        5.35915       -1.22407
H          0.94143        1.83937        1.23610
H          3.39445        1.74405        1.24685
H          0.77385       -1.68193       -1.23895
H         10.23225        1.52173        1.24823
H         10.02521       -1.23968       -2.04721
H          7.57599       -1.39131       -1.80242
