42
COMP92_230001.log	Energy: -1979376.3147010
C          1.19098       -0.34296        0.11251
C         -0.25406       -0.46625        0.41110
C         -0.82911       -0.85782        1.58167
Cl         0.06832       -1.24478        3.00173
C         -2.25785       -0.87306        1.53704
C         -3.06865       -1.21351        2.66046
N         -3.72109       -1.49751        3.57547
C         -2.74750       -0.49780        0.30133
S         -1.45327       -0.14112       -0.78506
C         -4.13673       -0.42628       -0.13378
S         -5.28674       -1.62421        0.34568
C         -6.54946       -0.87417       -0.54157
H         -7.54901       -1.28462       -0.54042
C         -6.11337        0.24142       -1.18535
Cl        -7.11712        1.24380       -2.16623
C         -4.72538        0.51250       -0.96103
C         -4.05109        1.63896       -1.52005
N         -3.51006        2.55094       -1.98813
C          1.84556       -1.49106       -0.38873
C          3.18662       -1.47290       -0.67768
C          3.83751       -2.70462       -1.20427
O          3.24620       -3.74390       -1.40262
N          5.19701       -2.58717       -1.46053
H          5.65287       -3.41899       -1.81862
C          6.01424       -1.47519       -1.28895
O          7.19529       -1.52026       -1.55729
C          5.33310       -0.26050       -0.76315
C          6.05960        0.88857       -0.55833
H          7.12045        0.88699       -0.78488
C          5.42666        2.04167       -0.05933
C          4.08097        2.03035        0.22614
C          3.44812        3.26608        0.75553
O          4.04568        4.30243        0.95094
N          2.09138        3.15614        1.02038
H          1.63974        3.99116        1.37700
C          1.25455        2.06149        0.84780
O          0.07743        2.14851        1.12198
C          1.91056        0.82629        0.31536
C          3.30277        0.85973        0.02486
C          3.94496       -0.29639       -0.47567
H          1.28541       -2.40715       -0.54556
H          5.98490        2.95628        0.10927
