32
COMP35_000010.log	Energy: -718553.7937555
C          2.02927       -0.07136        0.06225
C          0.55473       -0.22827        0.14916
C         -0.27605        0.70133       -0.47305
C         -1.65145        0.52361       -0.36581
N         -2.67579        1.29245       -0.88272
H         -2.55549        2.13262       -1.42263
C         -3.89129        0.74109       -0.52318
C         -5.18419        1.17602       -0.81320
C         -6.23995        0.42260       -0.32023
H         -7.25813        0.73691       -0.52929
C         -6.02047       -0.73552        0.44141
C         -4.73160       -1.16128        0.72624
C         -3.65150       -0.41994        0.24335
C         -2.21342       -0.55875        0.34480
C         -1.36629       -1.47897        0.96246
C          0.00490       -1.31126        0.86240
C          2.65603        1.14359        0.34881
F          1.93240        2.20379        0.72286
C          4.03474        1.28990        0.26636
F          4.57829        2.47422        0.55688
C          4.84236        0.22840       -0.10395
H          5.91709        0.34370       -0.16949
C          4.23775       -0.98327       -0.39075
F          4.98000       -2.02988       -0.75919
C          2.85885       -1.13112       -0.31210
F          2.33489       -2.32081       -0.61971
H          0.14098        1.53842       -1.02273
H         -5.36007        2.07206       -1.40082
H         -6.87034       -1.30074        0.81050
H         -4.56312       -2.05850        1.31493
H         -1.77450       -2.31810        1.51781
H          0.66944       -2.02026        1.34330
