31
COMP27_200000.log	Energy: -1781247.5132486
C          3.03500       -0.83656       -0.17103
C          1.75579       -0.12611       -0.14858
C          1.51848        1.22108       -0.21306
H          2.29853        1.96650       -0.27316
C          0.13467        1.52688       -0.18729
Cl        -0.43341        3.16534       -0.26542
C         -0.70116        0.43965       -0.09780
S          0.25619       -1.01035       -0.03692
C         -2.14774        0.44526       -0.04761
C         -2.91597       -0.65711        0.03217
C         -4.36593       -0.72495        0.08893
C         -5.36703        0.21999        0.05527
Cl        -5.12178        1.93264       -0.08421
C         -6.68478       -0.31029        0.14176
H         -7.57450        0.30650        0.12819
C         -6.68510       -1.66725        0.24166
H         -7.53832       -2.32619        0.32032
S         -5.08943       -2.30499        0.23092
C          4.28466       -0.15397        0.05253
N          4.44872        1.14764        0.29065
S          6.04554        1.39471        0.47369
N          6.59790       -0.11810        0.26309
C          5.52945       -0.88459        0.03698
C          5.55137       -2.28800       -0.19953
H          6.49631       -2.81845       -0.20727
C          4.35566       -2.90578       -0.41132
H          4.32338       -3.97422       -0.59956
C          3.12193       -2.18901       -0.40124
H          2.21530       -2.75400       -0.59820
H         -2.59694        1.43084       -0.07878
H         -2.42434       -1.62898        0.06177
