58
COMP97_230003.log	Energy: -2313812.9375236
C          1.18024       -0.00918        0.21204
C         -0.24913        0.02527        0.59660
C         -0.75553        0.33524        1.83249
C          0.07189        0.75824        2.91456
N          0.77698        1.10002        3.76835
C         -2.17983        0.22106        1.87790
Cl        -3.08091        0.56539        3.30772
C         -2.74191       -0.17616        0.69211
S         -1.49511       -0.42822       -0.49664
C         -4.15061       -0.37969        0.41666
C         -4.66620       -0.60874       -0.80308
C         -6.06784       -0.83474       -1.12052
C         -7.14434       -1.22728       -0.36272
Cl        -7.09651       -1.61238        1.31888
C         -8.36304       -1.33730       -1.11007
C         -9.61787       -1.73206       -0.55410
N        -10.64214       -2.05137       -0.11662
C         -8.19051       -1.02807       -2.43200
H         -8.94593       -1.03148       -3.20472
S         -6.57162       -0.60638       -2.77410
C          1.82081       -1.26918        0.22848
C          3.15697       -1.38750       -0.06039
C          3.78963       -2.73292       -0.03383
O          3.18845       -3.75094        0.22901
N          5.15101       -2.76312       -0.34203
C          5.77262       -4.07714       -0.39893
O          5.79801       -4.74047       -1.39260
O          6.27127       -4.37529        0.78524
C          6.91579       -5.65371        0.85974
C          5.97625       -1.67253       -0.63420
O          7.15469       -1.83476       -0.86206
C          5.30936       -0.34452       -0.64914
C          6.04825        0.77877       -0.93830
H          7.10752        0.67251       -1.14565
C          5.42821        2.04144       -0.96129
C          4.08259        2.16204       -0.70032
C          3.46389        3.50944       -0.73860
O          4.07697        4.52963       -0.96293
N          2.08879        3.53962       -0.50416
C          1.43895        4.83696       -0.62783
O          1.01909        5.25709       -1.66470
O          1.40862        5.41882        0.55455
C          0.77775        6.70574        0.57794
C          1.25004        2.46516       -0.20668
O          0.06270        2.65463       -0.05556
C          1.90706        1.12739       -0.11552
C          3.29536        1.02207       -0.39647
C          3.92475       -0.24278       -0.36967
H         -4.79621       -0.31965        1.28571
H         -4.00015       -0.61297       -1.66535
H          1.25582       -2.16030        0.48276
H          7.27888       -5.73549        1.88249
H          7.74280       -5.69601        0.14823
H          6.19732       -6.44522        0.63723
H          5.99676        2.93758       -1.18549
H          0.86128        7.04839        1.60758
H         -0.26945        6.61072        0.28371
H          1.29300        7.38665       -0.10232
