27
COMP22_010200.log	Energy: -1857189.1078940
C         -1.60621       -0.11740        0.14882
C         -0.16659       -0.34658        0.34243
C          0.42672       -1.23230        1.19787
H         -0.10405       -1.89382        1.86967
C          1.83356       -1.17948        1.10090
F          2.62357       -1.95695        1.85212
C          2.33213       -0.28377        0.19164
S          1.00967        0.54672       -0.56994
C          3.71926       -0.01593       -0.12865
S          5.04849       -0.84152        0.63752
C          6.20809        0.03789       -0.28421
H          7.26259       -0.14988       -0.13839
C          5.63096        0.92394       -1.14183
H          6.16269        1.58149       -1.81686
C          4.21854        0.87793       -1.03843
F          3.42791        1.65925       -1.78489
C         -2.14664        1.20415        0.31057
N         -1.44717        2.29290        0.63086
S         -2.50947        3.51993        0.69547
N         -3.88689        2.73617        0.33261
C         -3.54878        1.46016        0.14296
C         -4.43736        0.40250       -0.18310
H         -5.49615        0.59290       -0.30589
C         -3.91472       -0.84578       -0.33331
Cl        -4.99698       -2.14373       -0.73296
C         -2.50145       -1.11217       -0.17730
Cl        -1.94502       -2.73249       -0.44686
