32
COMP57_220000.log	Energy: -2607882.5661898
C         -2.72591       -0.10599       -0.22441
C         -1.37921        0.43700       -0.19294
C         -0.92549        1.72762       -0.28496
Cl        -1.94584        3.10620       -0.45799
C          0.49779        1.82799       -0.25129
Cl         1.32547        3.33745       -0.36669
C          1.13613        0.61833       -0.13526
S         -0.03762       -0.65791       -0.03059
C          2.56577        0.38930       -0.08998
C          3.14390       -0.82524       -0.09889
C          4.56451       -1.12725       -0.05075
C          5.68202       -0.36597        0.20463
Cl         5.67386        1.31575        0.59080
C          6.89965       -1.11453        0.14562
Cl         8.45672       -0.42226        0.42227
C          6.70466       -2.42807       -0.14846
H          7.45786       -3.19559       -0.25039
S          5.03822       -2.77450       -0.35939
C         -3.09189       -1.34659       -0.68785
H         -2.41080       -2.05486       -1.14590
N         -4.40775       -1.67251       -0.56997
C         -5.07014       -0.69345       -0.01732
S         -4.13098        0.70444        0.39968
C         -6.50282       -0.72796        0.23135
S         -7.45840       -2.11596       -0.19469
C         -8.84152       -1.29329        0.41598
H         -9.82170       -1.74800        0.39941
C         -8.48923       -0.06228        0.88416
H         -9.17139        0.65713        1.31953
N         -7.16221        0.25415        0.77851
H          3.16801        1.28953       -0.05900
H          2.50524       -1.70592       -0.16383
