25
COMP24_200300.log	Energy: -1799841.3935257
C         -1.27745        0.21638       -0.03687
C          0.18574        0.09491        0.04414
C          0.90319       -0.70775        0.88607
Cl         0.21282       -1.71329        2.10625
C          2.30389       -0.60118        0.67033
S          3.71542       -1.30839        1.37668
C          4.73054       -0.40856        0.29239
H          5.80508       -0.51454        0.34140
C          4.02598        0.38567       -0.55744
Cl         4.72861        1.41038       -1.75814
C          2.62109        0.27987       -0.34320
S          1.21761        0.99453       -1.04611
C         -2.06359       -0.89999       -0.46964
N         -1.58599       -2.09288       -0.82526
S         -2.87197       -2.99439       -1.22887
N         -4.07402       -1.93295       -0.97952
C         -3.49245       -0.80565       -0.56417
C         -4.15824        0.40708       -0.24519
H         -5.23604        0.47995       -0.32667
C         -3.39727        1.46993        0.15778
C         -4.04640        2.70913        0.48296
N         -4.59276        3.69807        0.73774
C         -1.95572        1.37581        0.26983
C         -1.23483        2.52388        0.74295
N         -0.66398        3.45332        1.13282
