56
COMP81_300021.log	Energy: -1549011.2808618
C         -0.38787       -0.00273        0.09278
C          1.08266        0.00508        0.07096
C          1.93173        1.04282       -0.22441
C          1.47221        2.34317       -0.59296
N          1.08277        3.40366       -0.85710
C          3.33229        0.67493       -0.15831
C          4.47004        1.45361       -0.39676
O          4.38875        2.75948       -0.77073
C          4.32612        3.68835        0.31115
C          5.70828        0.83141       -0.28325
S          7.25063        1.60865       -0.55275
C          8.08373        0.14144       -0.18228
H          9.16479        0.10920       -0.21170
C          7.25925       -0.89860        0.12089
C          7.75957       -2.19820        0.43885
N          8.18986       -3.24945        0.67139
C          5.85762       -0.53012        0.06595
C          4.72053       -1.30849        0.30494
O          4.80755       -2.61338        0.68098
C          4.85698       -3.54498       -0.39982
C          3.48345       -0.68677        0.18842
S          1.94512       -1.46112        0.45855
C         -1.09143       -1.12235       -0.36590
C         -2.48227       -1.16465       -0.35621
C         -3.20777       -0.07313        0.12194
C         -4.64269        0.26923        0.22753
C         -4.66122        1.69857        0.75462
O         -5.59433        2.43131        1.01180
N         -3.34797        2.04873        0.95657
H         -3.08848        2.97236        1.26616
C         -2.47460        1.04982        0.56103
C         -1.09560        1.10684        0.57283
C         -5.77386       -0.45081       -0.02009
C         -5.75936       -1.95460       -0.28529
O         -4.82855       -2.73378       -0.33646
N         -7.06999       -2.33054       -0.42028
H         -7.32940       -3.28769       -0.59923
C         -7.93891       -1.25231       -0.31741
C         -9.31406       -1.27362       -0.46007
C         -9.99249       -0.06055       -0.35399
H        -11.07296       -0.04294       -0.46069
C         -9.29671        1.12201       -0.12219
C         -7.91024        1.12569        0.02334
C         -7.20272       -0.07615       -0.06013
H          4.16708        4.66624       -0.14230
H          5.26307        3.68470        0.88065
H          3.48878        3.45957        0.97869
H          5.01122       -4.52316        0.05464
H          5.69202       -3.32356       -1.07262
H          3.91666       -3.53638       -0.96364
H         -0.54762       -1.97412       -0.76199
H         -2.99594       -2.04406       -0.71056
H         -0.58359        1.98684        0.94395
H         -9.84136       -2.20233       -0.65371
H         -9.83591        2.06074       -0.04914
H         -7.38634        2.04889        0.21300
