36
COMP57_410300.log	Energy: -1788911.1643617
C          1.73704        0.40534       -0.05387
C          0.35452       -0.00822       -0.02985
C         -0.11895       -1.28449        0.13089
F          0.66291       -2.36210        0.29948
C         -1.52293       -1.43398        0.11621
O         -2.15334       -2.62148        0.26380
C         -2.16200       -0.22922       -0.06664
S         -1.00568        1.06466       -0.21544
C         -3.57714        0.07395       -0.13813
C         -4.56872       -0.84287       -0.09042
C         -5.98076       -0.51056       -0.10372
C         -6.60027        0.60907        0.40015
O         -6.03231        1.65046        1.04679
C         -8.01490        0.57092        0.21382
F         -8.79233        1.56688        0.63212
C         -8.46322       -0.55037       -0.40366
H         -9.48480       -0.79498       -0.65352
S         -7.15767       -1.61350       -0.77305
C          2.28515        1.67414       -0.16057
C          1.53122        2.88429       -0.26609
N          0.90779        3.85813       -0.35026
N          3.65084        1.75061       -0.15800
C          4.16859        0.56522       -0.05151
S          3.03414       -0.74632        0.05487
C          5.60137        0.31822       -0.01922
S          6.74645        1.62596       -0.11913
C          8.00864        0.47236       -0.01528
H          9.05147        0.75548       -0.03241
C          7.48560       -0.78904        0.08438
C          8.27922       -1.97847        0.18349
N          8.94368       -2.92370        0.26222
N          6.11655       -0.87160        0.08196
H         -1.49167       -3.31168        0.40650
H         -3.82557        1.12353       -0.28751
H         -4.31214       -1.89696       -0.03265
H         -5.14973        1.38516        1.34308
