38
COMP61_400001.log	Energy: -1191983.5524282
C         -2.63334        0.55138       -0.04456
C         -1.22277        0.40501        0.06571
C         -0.46850       -0.75453       -0.06590
O         -0.90719       -1.97944       -0.26766
C          0.96563       -0.49661       -0.05273
C          2.02422       -1.41424       -0.16127
C          1.87906       -2.90441       -0.32205
C          3.30332       -0.86207       -0.10941
S          4.76875       -1.81469       -0.22930
C          5.74088       -0.37946       -0.07301
H          6.82050       -0.45640       -0.08989
C          5.00995        0.75156        0.06190
O          5.50764        2.00865        0.20251
C          3.57568        0.51997        0.04702
C          2.51724        1.43512        0.16171
C          2.67230        2.92275        0.33645
C          1.24147        0.88307        0.10044
S         -0.21428        1.84217        0.24813
C         -3.67253       -0.36400        0.03600
C         -3.95383       -1.72785        0.36519
O         -3.21579       -2.69127        0.62731
N         -5.34882       -1.79467        0.33701
H         -5.84720       -2.65103        0.52266
C         -5.92538       -0.56527        0.04865
H         -6.99873       -0.44558        0.02380
C         -4.91879        0.32213       -0.14483
C         -4.63132        1.74097       -0.37412
O         -5.32733        2.70071       -0.60918
N         -3.21441        1.79097       -0.26238
H         -2.70498        2.62876       -0.50409
H         -1.81934       -2.20908        0.10542
H          0.83969       -3.21980       -0.31299
H          2.41098       -3.42161        0.48595
H          2.33268       -3.22634       -1.26755
H          6.47134        1.96694        0.19166
H          3.71577        3.22809        0.35473
H          2.20136        3.24710        1.27287
H          2.17054        3.45508       -0.48135
