36
COMP57_400400.log	Energy: -1643068.0132983
C          1.55276        0.08412       -0.29236
C          0.20461        0.61406       -0.23421
C         -0.19674        1.91870       -0.33975
H          0.49323        2.73737       -0.51789
C         -1.60717        2.07329       -0.23214
O         -2.27015        3.25293       -0.31991
C         -2.29068        0.89310       -0.05119
S         -1.16525       -0.43440        0.03086
C         -3.72531        0.75249        0.06461
C         -4.39952       -0.39701        0.27448
C         -5.84808       -0.50367        0.30433
C         -6.77110        0.20838       -0.43035
O         -6.49630        1.16044       -1.35448
C         -8.12214       -0.16719       -0.17279
H         -8.96714        0.29600       -0.66643
C         -8.20959       -1.16703        0.74543
H         -9.10556       -1.63606        1.12764
S         -6.66294       -1.67431        1.30908
C          1.99905       -1.08773       -0.87092
O          1.26386       -2.01503       -1.50665
N          3.33379       -1.32473       -0.79678
C          3.93518       -0.34908       -0.17436
S          2.91404        0.93428        0.37986
C          5.36958       -0.31214        0.05551
S          6.39729       -1.60383       -0.47014
C          7.73875       -0.73879        0.18382
H          8.74495       -1.12915        0.12828
C          7.30612        0.43749        0.73694
O          8.04498        1.38695        1.34471
N          5.96845        0.67470        0.66278
H         -1.63726        3.96980       -0.43959
H         -4.26535        1.69616        0.01146
H         -3.84261       -1.32314        0.42042
H         -5.54895        1.12977       -1.55302
H          0.35910       -1.68982       -1.62239
H          8.97019        1.11529        1.34345
