52
COMP91_300021.log	Energy: -1594109.0940242
C          1.45746       -0.13421       -0.27567
C         -0.02339       -0.10515       -0.22131
C         -0.77992       -0.34162        0.88870
C         -0.17846       -0.56819        2.16257
N          0.35539       -0.76823        3.17244
C         -2.20176       -0.29905        0.62047
C         -3.27623       -0.48294        1.49465
O         -3.09450       -0.71937        2.82247
C         -2.94870       -2.09722        3.16610
C         -4.55691       -0.36847        0.96520
S         -6.03827       -0.53698        1.87730
C         -6.97581       -0.25996        0.45311
H         -8.05640       -0.26967        0.50609
C         -6.22969       -0.03800       -0.66375
C         -6.82411        0.22147       -1.93627
N         -7.33085        0.45161       -2.95339
C         -4.80447       -0.08897       -0.39836
C         -3.72803        0.09079       -1.27341
O         -3.90692        0.32849       -2.60103
C         -4.03236        1.70951       -2.94443
C         -2.44896       -0.02398       -0.74325
S         -0.96892        0.14284       -1.65586
C          2.06237       -1.36706       -0.61131
C          3.42709       -1.50437       -0.62630
C          4.02565       -2.82145       -0.97954
O          3.37195       -3.79802       -1.27611
N          5.41324       -2.86403       -0.94954
H          5.83337       -3.75582       -1.18618
C          6.30109       -1.84143       -0.63457
O          7.49888       -2.02664       -0.65067
C          5.67181       -0.53758       -0.28842
C          6.46863        0.53317        0.04236
H          7.54588        0.40596        0.04361
C          5.88427        1.76866        0.37567
C          4.51660        1.91723        0.37096
C          3.93357        3.23480        0.73279
O          4.59135        4.20620        1.03805
N          2.54785        3.28924        0.69248
H          2.13287        4.18538        0.92177
C          1.64696        2.28979        0.35175
O          0.45836        2.52657        0.31980
C          2.25144        0.96103        0.03020
C          3.66747        0.83101        0.03244
C          4.25997       -0.40942       -0.29692
H         -2.77652       -2.12237        4.24181
H         -2.08997       -2.54316        2.65326
H         -3.85806       -2.65759        2.91849
H         -4.19976        1.73697       -4.02079
H         -3.11677        2.25693       -2.69161
H         -4.88765        2.16520       -2.43496
H          1.44365       -2.22533       -0.85320
H          6.49859        2.62152        0.64405
