56
COMP93_000032.log	Energy: -1168884.1942489
C          0.38603       -0.26631        0.28943
C          1.83378       -0.58498        0.48651
C          2.47940       -1.25709       -0.54693
C          3.81429       -1.63927       -0.42415
C          4.53698       -2.35074       -1.51992
O          5.69127       -2.70533       -1.45219
O          3.76238       -2.55369       -2.59549
C          4.39474       -3.22637       -3.68392
C          4.51233       -1.35850        0.74744
H          5.54975       -1.66275        0.83159
C          3.87380       -0.69545        1.78445
C          2.53859       -0.30728        1.66806
C          1.86282        0.41971        2.78413
O          0.67673        0.65864        2.83485
O          2.72306        0.78499        3.74256
C          2.14759        1.49479        4.83928
C         -0.52259       -1.32832        0.50938
C         -1.86918       -1.17288        0.30663
C         -2.77755       -2.32301        0.56405
O         -2.39662       -3.41352        0.92394
N         -4.13508       -2.05958        0.34128
O         -5.00331       -3.05521        0.69821
C         -5.26032       -3.92738       -0.40294
C         -4.72097       -0.87437       -0.12247
O         -5.91289       -0.79390       -0.31490
C         -3.76858        0.24273       -0.36703
C         -4.25529        1.44979       -0.81485
H         -5.32170        1.56086       -0.97750
C         -3.37127        2.51592       -1.05144
C         -2.01909        2.36333       -0.83806
C         -1.12780        3.52300       -1.09518
O         -1.51340        4.59093       -1.51556
N          0.22080        3.28604       -0.82298
O          1.04315        4.37738       -0.89953
C          1.61601        4.49297       -2.20200
C          0.82801        2.10204       -0.37514
O          2.02529        2.06196       -0.20525
C         -0.09604        0.95317       -0.15912
C         -1.48890        1.13247       -0.37749
C         -2.38323        0.06417       -0.14421
H          1.94173       -1.47836       -1.46224
H          3.63537       -3.30339       -4.46121
H          4.73229       -4.21893       -3.37622
H          5.25372       -2.65291       -4.04029
H          4.40966       -0.47013        2.69851
H          2.97723        1.72339        5.50710
H          1.40343        0.87703        5.34756
H          1.67152        2.41336        4.48899
H         -0.15075       -2.28671        0.85659
H         -5.95608       -4.66913       -0.00952
H         -4.33815       -4.41817       -0.72791
H         -5.72847       -3.37988       -1.22644
H         -3.73637        3.47462       -1.40375
H          2.24605        5.38139       -2.14769
H          0.83457        4.63713       -2.95416
H          2.22934        3.61652       -2.43171
