38
COMP74_400002.log	Energy: -1716566.7449814
C         -0.86043       -1.28436       -0.15310
C         -2.11511       -0.56490       -0.02800
C         -2.55346        0.56714       -0.69424
O         -1.85674        1.34950       -1.51704
C         -3.93758        0.81039       -0.44750
S         -5.04087        2.04397       -0.94907
C         -6.30916        1.30206       -0.00836
H         -7.29866        1.73987       -0.00199
C         -5.90113        0.17932        0.65239
O         -6.62322       -0.62932        1.46542
C         -4.52895       -0.10761        0.38762
S         -3.41197       -1.30946        0.92475
C          0.47304       -0.89280       -0.19794
C          0.99730        0.47510       -0.06990
O          0.28099        1.48079       -0.06510
C          2.45441        0.58622        0.05756
C          3.11974        1.76837        0.25085
O          2.56637        2.96767        0.37542
C          3.40162        4.08488        0.62862
S          4.86396        1.53730        0.31669
C          4.66682       -0.19536        0.06058
O          5.70401       -1.02249       -0.00187
C          7.01011       -0.48995        0.13196
C          3.35213       -0.54566       -0.05444
C          2.85582       -1.91256       -0.26596
O          3.57210       -2.89200       -0.38686
C          1.37374       -2.01545       -0.28881
C          0.73685       -3.21544       -0.32481
H          1.20499       -4.18877       -0.37531
S         -0.96288       -3.02664       -0.25492
H         -0.96025        1.46139       -1.11040
H         -7.52130       -0.28594        1.53973
H          2.73457        4.94410        0.68277
H          4.12176        4.23053       -0.18569
H          3.93104        3.96869        1.58175
H          7.68708       -1.33806        0.03880
H          7.14463       -0.02071        1.11423
H          7.22168        0.23669       -0.66195
