38
COMP64_300003.log	Energy: -1353498.4151120
C          0.30520        0.89053        0.08168
C         -0.93676        0.13323        0.10424
C         -1.18517       -0.94831        0.92087
C         -0.32727       -1.37467        1.97657
N          0.34284       -1.72925        2.85306
C         -2.44242       -1.54875        0.61367
S         -3.34390       -2.88696        1.23789
C         -4.60564       -2.60064        0.09743
H         -5.48033       -3.23648        0.08511
C         -4.36430       -1.53380       -0.72835
C         -5.25667       -1.09370       -1.75103
N         -5.96866       -0.72181       -2.58658
C         -3.10521       -0.92587       -0.42284
S         -2.21283        0.41266       -1.04754
C          1.55394        0.37555       -0.00063
C          2.24486       -0.91052       -0.15615
O          1.83801       -2.04044       -0.15439
N          3.62678       -0.48855       -0.33530
C          4.77942       -1.27760       -0.50190
O          5.87155       -0.78629       -0.65523
O          4.49395       -2.56598       -0.46570
C          5.61597       -3.44060       -0.62090
C          3.72878        0.90341       -0.33062
H          4.69390        1.36040       -0.49592
C          2.50692        1.43564       -0.12228
C          1.80141        2.71476       -0.09905
O          2.19648        3.84727       -0.13824
N          0.39948        2.30021        0.02150
C         -0.65434        3.13923        0.44298
O         -1.61989        2.73185        1.04144
O         -0.43454        4.39017        0.07944
C         -1.41878        5.33077        0.52062
H          5.20288       -4.44453       -0.54305
H          6.35003       -3.26121        0.16734
H          6.08398       -3.28802       -1.59579
H         -1.04850        6.30070        0.19371
H         -1.51643        5.29926        1.60769
H         -2.38504        5.10988        0.06208
