38
COMP51_000400.log	Energy: -1597303.7042063
C         -1.13411       -0.56093        0.13853
C          0.30839       -0.41073        0.06209
C          1.04937        0.69604        0.32171
H          0.59693        1.62233        0.65585
C          2.46823        0.50578        0.15430
C          3.50034        1.43437        0.34590
C          3.26517        2.86137        0.75967
C          4.79222        0.96051        0.13076
S          6.24983        1.91772        0.30195
C          7.23338        0.55272       -0.14195
H          8.30861        0.66537       -0.18277
C          6.51900       -0.56229       -0.40548
H          6.98021       -1.49809       -0.69614
C          5.09474       -0.36984       -0.25857
C          4.06096       -1.29906       -0.45084
C          4.29512       -2.72550       -0.86820
C          2.77268       -0.82367       -0.23608
S          1.31235       -1.77325       -0.43771
C         -1.86932       -1.63830        0.59105
O         -1.40109       -2.80966        1.05458
N         -3.21935       -1.49432        0.57531
C         -3.54545       -0.31595        0.12060
S         -2.22594        0.70774       -0.33249
C         -4.92067        0.13636       -0.00677
S         -6.24653       -0.88457        0.44193
C         -7.31881        0.38661       -0.01638
H         -8.39098        0.27973        0.06585
C         -6.59757        1.46175       -0.46365
O         -7.06658        2.64456       -0.90928
N         -5.24474        1.31693       -0.45675
H          2.20498        3.08932        0.88153
H          3.67127        3.55495        0.01370
H          3.76412        3.07680        1.71212
H          5.35529       -2.94947       -0.99725
H          3.79240       -2.94069       -1.81880
H          3.89586       -3.42243       -0.12147
H         -0.43614       -2.76936        1.12563
H         -8.02996        2.63624       -0.86956
