50
COMP46_000032.log	Energy: -1194640.4761833
C         -2.11616       -0.55285       -0.49876
C         -0.85363        0.19409       -0.44688
C          0.35140       -0.47027       -0.16830
C          1.52540        0.25386       -0.13421
C          2.93697       -0.23742        0.15100
C          3.02457       -0.84679        1.55627
O          3.54710       -0.34236        2.51384
O          2.40094       -2.03517        1.57586
C          2.37401       -2.69195        2.84428
C          3.39953       -1.27890       -0.87566
O          2.80089       -1.60594       -1.86609
O          4.59497       -1.77155       -0.52054
C          5.14969       -2.73667       -1.41627
C          3.75227        1.04350        0.02999
C          5.11482        1.22491        0.19810
C          5.63978        2.50601        0.03153
H          6.70506        2.66948        0.16175
C          4.81092        3.57990       -0.29445
C          3.43990        3.39650       -0.45403
C          2.91514        2.11995       -0.28755
C          1.53472        1.63225       -0.37853
C          0.34530        2.29822       -0.64767
C         -0.84237        1.57831       -0.67968
C         -3.41690       -0.14979       -0.33649
C         -4.15466        1.10114       -0.01929
O         -3.79148        2.24214        0.13648
N         -5.49166        0.67473        0.08922
O         -6.50819        1.57022        0.20284
C         -6.84447        1.77508        1.57658
C         -5.73096       -0.68166       -0.19219
O         -6.80631       -1.22389       -0.18891
C         -4.36681       -1.20711       -0.44286
C         -3.82219       -2.42015       -0.69838
H         -4.31426       -3.37456       -0.82324
S         -2.10661       -2.27523       -0.82711
H          0.37018       -1.53685        0.03161
H          1.86746       -3.64077        2.67227
H          1.82515       -2.08914        3.57135
H          3.39025       -2.85756        3.20852
H          6.09771       -3.03665       -0.97170
H          5.30922       -2.29242       -2.40129
H          4.47960       -3.59390       -1.51202
H          5.75609        0.39072        0.45995
H          5.23954        4.56939       -0.42133
H          2.79570        4.23502       -0.70220
H          0.33296        3.36797       -0.83266
H         -1.77539        2.09433       -0.87190
H         -7.65076        2.50912        1.55967
H         -5.98641        2.17538        2.12483
H         -7.19565        0.84242        2.02853
