30
COMP29_000310.log	Energy: -1295529.7250790
C         -1.54773        0.17514        0.05953
C         -0.09876        0.27956        0.15807
C          0.62933        1.33177        0.68458
C          2.01623        1.13855        0.57022
C          2.33610       -0.05548       -0.04618
S          0.96164       -0.97899       -0.46358
C          3.77257       -0.16961       -0.12858
C          4.34328        0.95186        0.43216
C          3.27321        1.89350        0.93531
H          3.32046        2.87228        0.44391
H          3.35302        2.06620        2.01510
C          5.76161        0.92195        0.38616
C          6.22207       -0.22040       -0.20734
H          7.25012       -0.50899       -0.37817
S          4.94475       -1.27793       -0.71943
C         -2.21288       -1.10286        0.13647
N         -1.60467       -2.27956        0.27487
S         -2.76948       -3.40963        0.31128
N         -4.08685       -2.47123        0.16272
C         -3.64500       -1.21665        0.07439
C         -4.46098       -0.06338       -0.05990
H         -5.53962       -0.15143       -0.09589
C         -3.82931        1.14434       -0.14607
C         -4.63125        2.32842       -0.29051
N         -5.30514        3.26393       -0.40151
C         -2.38587        1.27126       -0.10743
C         -1.85897        2.59134       -0.29237
N         -1.46951        3.67191       -0.45011
H          0.17100        2.19831        1.14306
H          6.41587        1.69722        0.76681
