40
COMP72_000002.log	Energy: -1670753.3505426
C         -0.52517       -1.23175        0.32214
C         -1.76905       -0.47525        0.40204
C         -2.05625        0.68251        1.07820
H         -1.30714        1.23516        1.62501
C         -3.41643        1.06589        0.97765
H         -3.82921        1.94156        1.46606
C         -4.17411        0.20825        0.22136
S         -3.19844       -1.08532       -0.39635
C         -5.59051        0.28578       -0.10034
S         -6.41365        1.81756       -0.13398
C         -7.90970        1.06744       -0.54583
H         -8.79983        1.66696       -0.67747
C         -7.78002       -0.28404       -0.66727
H         -8.60115       -0.94323       -0.92263
C         -6.45397       -0.73292       -0.41123
H         -6.15301       -1.77447       -0.43420
C          0.80304       -0.84297        0.27346
C          1.32875        0.54845        0.27984
O          0.62735        1.53276        0.45083
C          2.78754        0.65658        0.07202
C          3.45789        1.84576       -0.01434
O          2.91886        3.05888        0.05770
C          3.75866        4.18860       -0.09592
S          5.19035        1.61156       -0.23869
C          4.98067       -0.13579       -0.20407
O          6.00429       -0.97454       -0.32927
C          7.30164       -0.44092       -0.52369
C          3.67069       -0.48692       -0.03692
C          3.17118       -1.86665        0.02426
O          3.87815       -2.85835       -0.04378
C          1.69396       -1.96756        0.15813
C          1.05185       -3.16780        0.13661
H          1.51330       -4.14154        0.04901
S         -0.64235       -2.97192        0.25979
H          3.10537        5.05596       -0.00928
H          4.24118        4.19061       -1.08090
H          4.52016        4.22378        0.69291
H          7.96722       -1.30003       -0.59788
H          7.60339        0.18202        0.32744
H          7.35203        0.14300       -1.45087
