44
COMP67_340002.log	Energy: -1402712.8720864
C          2.58799        0.65589       -0.07679
C          1.27747        0.09962       -0.06562
C          0.91612       -1.25761       -0.11686
O          1.65538       -2.33250       -0.21946
C         -0.50627       -1.43598       -0.10952
C         -1.08060       -2.73813       -0.15050
N         -1.57871       -3.78528       -0.18265
C         -1.21870       -0.25227       -0.05039
S         -0.16193        1.10508       -0.03757
C         -2.64291        0.02060       -0.01281
C         -3.62080       -0.90561       -0.07114
C         -5.04310       -0.62884       -0.03003
C         -5.74941        0.55837        0.10428
C         -5.19712        1.85997        0.24991
N         -4.82436        2.95333        0.37273
C         -7.17223        0.37500        0.09137
O         -8.07569        1.36726        0.20608
C         -7.52418       -0.93706       -0.05067
H         -8.52466       -1.34136       -0.08995
S         -6.14250       -1.94985       -0.16653
C          3.84734        0.06284        0.00870
C          4.48853       -1.17062        0.34854
O          4.07210       -2.31261        0.59153
N          5.84880       -0.82930        0.34416
O          6.83641       -1.69559        0.70289
C          7.11928       -2.61006       -0.36260
C          6.07569        0.50807        0.09732
H          7.07864        0.90705        0.12125
C          4.86092        1.07494       -0.11836
C          4.21832        2.36196       -0.31707
O          4.61023        3.48519       -0.51815
N          2.82939        2.01776       -0.18543
O          1.86487        2.90192       -0.57773
C          1.63836        3.89321        0.43598
H          2.61257       -2.28658        0.11406
H         -2.90121        1.07257        0.06932
H         -3.36240       -1.95632       -0.16018
H         -7.62500        2.21892        0.29267
H          7.92580       -3.23765        0.01754
H          7.44951       -2.06899       -1.25596
H          6.23960       -3.21973       -0.58315
H          0.80196        4.48284        0.05970
H          2.52597        4.51778        0.55064
H          1.36957        3.41705        1.38421
