58
COMP97_040003.log	Energy: -1715681.7234664
C          0.60302       -0.13939        0.32265
C         -0.82432       -0.39871        0.54545
C         -1.34993       -1.20775        1.53097
O         -0.66876       -1.78589        2.54864
C         -2.75103       -1.39680        1.43107
H         -3.31658       -1.96656        2.15745
C         -3.29176       -0.75666        0.34583
S         -2.08092        0.11370       -0.53843
C         -4.67090       -0.72058       -0.11268
C         -5.63112       -1.56020        0.31196
C         -7.02397       -1.49582       -0.09708
C         -7.69554       -0.49439       -0.75385
H         -7.23684        0.44718       -1.03846
C         -9.06386       -0.80999       -0.99213
O         -9.95410        0.00231       -1.61821
C         -9.42167       -2.03856       -0.51050
H        -10.39543       -2.50230       -0.56239
S         -8.08674       -2.82564        0.23819
C          1.43915       -1.29120        0.27474
C          2.77803       -1.20541        0.00169
C          3.59329       -2.44827       -0.03230
O          3.15386       -3.54843        0.22160
N          4.93577       -2.27697       -0.37652
C          5.74009       -3.48414       -0.47032
O          5.83381       -4.12862       -1.47216
O          6.31493       -3.71668        0.69530
C          7.15468       -4.87735        0.72806
C          5.59142       -1.07137       -0.64669
O          6.77542       -1.06035       -0.90399
C          4.74638        0.14943       -0.59499
C          5.31632        1.37352       -0.86203
H          6.37139        1.42277       -1.10798
C          4.52736        2.53403       -0.81171
C          3.18941        2.45733       -0.49223
C          2.40235        3.71179       -0.44124
O          2.85201        4.80687       -0.70547
N          1.07823        3.55884       -0.04296
C          0.29112        4.77523        0.06429
O         -0.42487        5.16754       -0.80880
O          0.50736        5.33515        1.24046
C         -0.19984        6.56099        1.46051
C          0.42811        2.37533        0.33580
O         -0.67469        2.44666        0.83077
C          1.18817        1.11170        0.11717
C          2.57134        1.21100       -0.21405
C          3.37315        0.04830       -0.27147
H          0.23365       -1.44277        2.57491
H         -4.91414        0.03902       -0.85244
H         -5.36885       -2.35571        1.00676
H         -9.50672        0.81236       -1.88706
H          1.00125       -2.27364        0.42470
H          7.56360       -4.91051        1.73629
H          7.95205       -4.78175       -0.01175
H          6.56466       -5.77199        0.51848
H          4.95493        3.50883       -1.01988
H          0.06398        6.86926        2.47065
H         -1.27522        6.39358        1.37349
H          0.11643        7.30936        0.73092
