46
COMP77_300002.log	Energy: -1835030.1245177
C         -0.70061       -1.14671       -0.66510
C          0.52465       -0.35336       -0.65394
C          0.74160        0.92605       -1.08401
H         -0.04190        1.57065       -1.45227
C          2.10374        1.31877       -0.97003
C          2.58061        2.61270       -1.34400
N          2.97146        3.66298       -1.64148
C          2.93057        0.34093       -0.44469
S          2.01170       -1.07939       -0.09338
C          4.35259        0.46072       -0.19926
C          5.08445       -0.42454        0.50226
C          6.51532       -0.34120        0.73809
C          7.51186        0.35062        0.06971
C          7.29452        1.14351       -1.09644
N          7.13675        1.78795       -2.04802
C          8.81208        0.15999        0.63300
H          9.70481        0.62334        0.23237
C          8.79443       -0.67236        1.70754
H          9.62974       -0.98883        2.31622
S          7.20404       -1.23330        2.05392
C         -2.02346       -0.80839       -0.44536
C         -2.55742        0.53934       -0.09771
O         -1.86238        1.54184       -0.05957
C         -4.00317        0.57112        0.18711
C         -4.68154        1.70245        0.55236
O         -4.15519        2.90811        0.72809
C         -5.00643        3.98094        1.09289
S         -6.40131        1.39456        0.78452
C         -6.17615       -0.30093        0.36648
O         -7.18255       -1.16717        0.35298
C         -8.49243       -0.69634        0.61869
C         -4.87055       -0.58529        0.07971
C         -4.36530       -1.90752       -0.30697
O         -5.05612       -2.90572       -0.42176
C         -2.89583       -1.94658       -0.53998
C         -2.24347       -3.10533       -0.83517
H         -2.69158       -4.08228       -0.95272
S         -0.56275       -2.85012       -1.01114
H          4.81373        1.35089       -0.61992
H          4.58810       -1.27806        0.96196
H         -4.36151        4.85511        1.17085
H         -5.48547        3.79080        2.06109
H         -5.76971        4.15561        0.32496
H         -9.13963       -1.56981        0.55175
H         -8.80076        0.04741       -0.12574
H         -8.56062       -0.26746        1.62605
