26
COMP28_000100.log	Energy: -1077120.6564119
C         -0.57302        0.18843       -0.23789
C          0.72244       -0.47776       -0.35049
C          1.92352       -0.02465        0.12733
O          2.07565        1.09839        0.87085
C          3.43052        1.53316        0.91909
C          4.35513        0.36632        1.22190
O          4.29880       -0.60690        0.18555
C          3.02125       -0.88649       -0.18978
C          2.64083       -1.97955       -0.90426
H          3.27234       -2.78234       -1.25548
S          0.94047       -1.99170       -1.18312
C         -1.77892       -0.51094        0.12161
N         -1.86851       -1.81332        0.37441
S         -3.42830       -2.11378        0.72918
N         -4.05072       -0.61562        0.58198
C         -3.03910        0.18098        0.24444
C         -3.12549        1.58480        0.01724
H         -4.06160        2.11967        0.11313
C         -1.97567        2.21300       -0.32677
F         -1.95325        3.52290       -0.56954
C         -0.72309        1.52798       -0.47005
F          0.29893        2.28209       -0.86358
H          3.48098        2.28511        1.70854
H          3.70289        1.99427       -0.03856
H          4.07417       -0.09301        2.17872
H          5.39397        0.69798        1.27460
