44
COMP49_000032.log	Energy: -1597191.8327093
C          2.19210        1.40404       -0.17161
C          0.76128        1.19389       -0.11736
C          0.08976       -0.00651       -0.21162
C         -1.30329        0.17692       -0.11762
C         -1.68436        1.48849        0.04534
S         -0.34189        2.54796        0.09146
C         -3.12549        1.56008        0.11751
C         -3.64367        0.29131        0.00889
C         -2.52475       -0.72463       -0.13869
C         -2.63906       -1.53280       -1.43439
O         -1.82252       -1.56069       -2.31564
O         -3.79382       -2.20965       -1.44385
C         -3.99076       -3.05852       -2.57652
C         -2.40639       -1.72357        1.02139
O         -1.90599       -2.81395        0.90173
O         -2.86095       -1.21663        2.16595
C         -2.67896       -2.05015        3.31314
C         -5.05909        0.25874        0.07315
C         -5.57633        1.51352        0.23063
H         -6.61716        1.79635        0.30737
S         -4.35272        2.74465        0.30357
C          3.21975        0.49388       -0.17275
C          3.38123       -0.97618       -0.10680
O          2.57963       -1.87886       -0.05806
N          4.77869       -1.15116       -0.08627
O          5.34166       -2.38403       -0.18514
C          5.56314       -2.94019        1.11265
C          5.54774        0.02158       -0.17988
O          6.75044        0.07932       -0.19584
C          4.51380        1.08634       -0.22240
C          4.50721        2.43892       -0.26462
H          5.33981        3.12728       -0.30180
S          2.87630        3.01714       -0.25615
H          0.59342       -0.95747       -0.34183
H         -4.96219       -3.52751       -2.42546
H         -3.20240       -3.81293       -2.62197
H         -3.98434       -2.47265       -3.49846
H         -3.11550       -1.49944        4.14506
H         -1.61528       -2.23039        3.48521
H         -3.18694       -3.00696        3.17370
H         -5.65899       -0.63927        0.00137
H          6.03164       -3.90706        0.92617
H          4.61213       -3.07970        1.63531
H          6.23729       -2.30306        1.69335
