37
COMP47_030002.log	Energy: -1451667.4095058
C          2.63180        1.06130       -0.16024
C          1.18490        1.20748       -0.12043
C          0.42484        2.37120       -0.07596
C          0.94224        3.70199       -0.04673
N          1.31890        4.79880       -0.02109
C         -0.97583        2.13989       -0.07020
H         -1.70274        2.94255       -0.06833
C         -1.29159        0.80730       -0.09882
S          0.13564       -0.17239       -0.14139
C         -2.60001        0.17014       -0.09140
C         -3.73489        0.79110        0.27036
C         -5.05585        0.18246        0.21108
C         -5.47583       -0.92454       -0.47813
H         -4.84169       -1.51067       -1.13162
C         -6.85858       -1.21036       -0.26963
C         -7.54430       -2.30804       -0.87822
N         -8.09325       -3.20010       -1.37443
C         -7.47148       -0.31081        0.56597
H         -8.50718       -0.30244        0.87503
S         -6.37335        0.88202        1.10885
C          3.40822       -0.07285       -0.12089
C          3.21236       -1.54222       -0.00839
O          2.21143       -2.21261        0.06632
N          4.52108       -2.04965        0.01534
O          4.76264       -3.38462       -0.05381
C          4.93102       -3.93506        1.25587
C          5.55013       -1.09993       -0.12204
O          6.72942       -1.33642       -0.15009
C          4.80394        0.18103       -0.18946
C          5.12114        1.49453       -0.28517
H          6.09653        1.95672       -0.35073
S          3.69289        2.45599       -0.29405
H         -2.63434       -0.87463       -0.39310
H         -3.68803        1.81321        0.64082
H          5.11806       -4.99609        1.08874
H          4.01878       -3.80356        1.84540
H          5.78954       -3.47675        1.75559
