46
COMP92_210000.log	Energy: -2037480.6059533
C          0.91749       -0.13362        0.10427
C         -0.54669       -0.05513        0.30321
C         -1.21844        0.09562        1.47805
Cl        -0.46985        0.30521        3.01659
C         -2.63097        0.11900        1.30288
F         -3.46123        0.28984        2.32119
C         -3.03464       -0.03524        0.00952
S         -1.64530       -0.21875       -1.02179
C         -4.39611       -0.07252       -0.49343
S         -4.91160        0.82942       -1.88917
C         -6.52356        0.23952       -1.76213
H         -7.28097        0.53301       -2.47435
C         -6.66936       -0.59033       -0.69428
Cl        -8.13757       -1.37274       -0.23791
C         -5.45102       -0.76782        0.02369
F         -5.36642       -1.55866        1.08378
C          1.49028       -1.42700        0.06274
C          2.84260       -1.60383       -0.09343
C          3.40156       -2.98383       -0.13490
O          2.69167       -3.96482       -0.04356
N          4.78658       -3.08983       -0.28613
C          5.38514       -4.42280       -0.33311
C          5.66985       -2.01531       -0.40539
O          6.86161       -2.20872       -0.54016
C          5.08534       -0.64842       -0.36009
C          5.90705        0.45005       -0.46623
H          6.97470        0.29912       -0.58252
C          5.35891        1.74522       -0.42208
C          4.00149        1.92679       -0.27847
C          3.46269        3.31077       -0.23257
O          4.18411        4.28553       -0.30779
N          2.07918        3.42881       -0.10281
C          1.49379        4.76850       -0.06848
C          1.17329        2.36894       -0.01677
O         -0.01554        2.60464        0.05311
C          1.73403        0.98312       -0.02234
C          3.13384        0.81393       -0.17051
C          3.69062       -0.48308       -0.20849
H          0.85188       -2.29877        0.16110
H          4.58966       -5.15134       -0.19613
H          6.13194       -4.51676        0.45724
H          5.87658       -4.57265       -1.29653
H          5.99417        2.62087       -0.49883
H          2.30242        5.48787       -0.17125
H          0.97022        4.91666        0.87799
H          0.77651        4.87749       -0.88378
