33
COMP27_310100.log	Energy: -1569190.5225849
C         -3.05447        0.45308       -0.19171
C         -1.65352        0.04452       -0.30267
C         -1.17559       -1.15878       -0.73493
F         -1.94114       -2.13778       -1.19100
C          0.24029       -1.29303       -0.69164
C          0.90014       -2.48066       -1.11465
N          1.44678       -3.44469       -1.45695
C          0.85668       -0.14755       -0.21198
S         -0.32545        1.05403        0.16806
C          2.25315        0.18294        0.00438
C          3.29453       -0.64131       -0.22247
C          4.69228       -0.31574       -0.00512
C          5.31691        0.84083        0.43552
C          4.66508        2.05347        0.79493
N          4.12641        3.03847        1.08669
C          6.73505        0.69250        0.49296
F          7.51527        1.68950        0.89069
C          7.18754       -0.52906        0.11139
H          8.21082       -0.87100        0.07153
S          5.87047       -1.54106       -0.33303
C         -4.02736       -0.38629        0.45340
N         -3.77927       -1.55909        1.02797
S         -5.19991       -2.09728        1.60895
N         -6.17711       -0.87308        1.16774
C         -5.40882        0.01344        0.53768
C         -5.84406        1.25884       -0.00136
H         -6.87842        1.57239        0.06082
C         -4.89934        2.03589       -0.58467
F         -5.20278        3.21821       -1.11349
C         -3.52410        1.63847       -0.68079
F         -2.70958        2.49743       -1.28938
H          2.43088        1.18445        0.38462
H          3.11506       -1.64357       -0.59988
