42
COMP67_330000.log	Energy: -1329759.8775196
C         -3.23144        0.28534        0.35807
C         -1.83707        0.67320        0.19521
C         -1.29733        1.86942       -0.23131
C         -2.06319        3.00485       -0.63174
N         -2.67673        3.92915       -0.96652
C          0.13102        1.83376       -0.31681
C          0.89592        2.96060       -0.73704
N          1.53082        3.87037       -1.07488
C          0.66346        0.60521        0.03894
S         -0.59943       -0.49044        0.47196
C          2.03222        0.11970        0.10129
C          3.12951        0.82762       -0.22815
C          4.49892        0.34395       -0.16520
C          5.04739       -0.82826        0.32381
C          4.30158       -1.87955        0.93170
N          3.68227       -2.72722        1.42441
C          6.47479       -0.88080        0.17161
C          7.28353       -1.98105        0.59242
N          7.94488       -2.86989        0.93081
C          6.97935        0.24402       -0.42071
H          8.01620        0.45129       -0.64497
S          5.74822        1.36734       -0.79796
C         -3.81563       -0.87390       -0.06739
C         -3.56444       -2.09000       -0.83801
O         -2.55823       -2.56872       -1.32103
N         -4.85416       -2.69041       -0.91492
C         -5.08364       -3.95988       -1.57046
C         -5.79808       -1.92798       -0.26446
H         -6.83402       -2.24173       -0.24467
C         -5.20532       -0.82595        0.26655
C         -5.46555        0.42143        0.97471
O         -6.45475        0.89003        1.49351
N         -4.18819        1.06745        0.98686
C         -3.98800        2.27641        1.76366
H          2.13568       -0.90580        0.44208
H          3.02515        1.84769       -0.58391
H         -4.13671       -4.26542       -2.01827
H         -5.83802       -3.85983       -2.35611
H         -5.40232       -4.72092       -0.85187
H         -4.73563        2.27922        2.55878
H         -4.12012        3.17164        1.15227
H         -2.98735        2.27814        2.20231
