38
COMP61_000012.log	Energy: -1191885.3261245
C          1.58905        0.71879       -0.03592
C          0.15240        0.63287       -0.05858
C         -0.53091       -0.53960        0.10197
H         -0.03101       -1.49294        0.25271
C         -1.95089       -0.37222        0.04573
C         -2.93901       -1.35389        0.17395
H         -2.66509       -2.39130        0.33788
C         -4.26155       -0.95421        0.08361
S         -5.67783       -1.97733        0.20610
C         -6.72424       -0.60355       -0.02700
H         -7.79601       -0.75246       -0.02997
C         -6.06151        0.56239       -0.18879
H         -6.55066        1.51669       -0.34500
C         -4.62938        0.40276       -0.13159
C         -3.64209        1.38090       -0.25889
H         -3.91191        2.41939       -0.42452
C         -2.31619        0.98281       -0.16778
S         -0.91302        2.01546       -0.30318
C          2.52279       -0.29086        0.05151
C          2.63746       -1.72760        0.18594
O          1.83842       -2.64519        0.27371
N          4.05286       -1.90173        0.17306
O          4.65622       -3.09803        0.42690
C          4.60790       -3.94025       -0.72877
C          4.75091       -0.72060        0.10213
H          5.83136       -0.72560        0.12011
C          3.83999        0.28536        0.01783
C          3.72436        1.73092       -0.10906
O          4.51439        2.64350       -0.18488
N          2.30395        1.90266       -0.09738
O          1.72422        3.11221       -0.33842
C          1.75439        3.93205        0.83777
H          5.13413       -4.84889       -0.43382
H          5.11857       -3.46505       -1.57371
H          3.57123       -4.17071       -0.98619
H          1.22844        4.84358        0.55259
H          2.78866        4.15659        1.10765
H          1.23125        3.43759        1.66279
