26
COMP32_220000.log	Energy: -2240690.9716873
C         -2.77600       -0.29437        0.09950
C         -1.35216        0.07262        0.04263
C         -0.79710        1.18245       -0.53067
Cl        -1.70305        2.38185       -1.37122
C          0.62119        1.24637       -0.37010
Cl         1.57917        2.54703       -0.96122
C          1.12943        0.17762        0.31645
S         -0.13532       -0.91510        0.77259
C          2.52298       -0.09384        0.65646
S          3.08246       -0.00677        2.29684
C          4.68555       -0.41947        1.84139
H          5.47213       -0.50211        2.57755
C          4.79238       -0.60774        0.49778
Cl         6.26396       -1.03029       -0.29728
C          3.54923       -0.42539       -0.18670
Cl         3.36637       -0.62754       -1.88522
C         -3.25754       -1.44158       -0.53167
F         -2.42077       -2.23167       -1.20238
C         -4.60504       -1.77453       -0.47813
F         -5.02551       -2.87694       -1.09769
C         -5.50447       -0.97306        0.20477
H         -6.55539       -1.23248        0.24452
C         -5.03630        0.16687        0.83682
F         -5.87781        0.95354        1.50678
C         -3.68932        0.50218        0.79205
F         -3.27342        1.59597        1.42411
