29
COMP22_230100.log	Energy: -1972908.6967550
C         -2.31882       -0.35328       -0.41324
C         -0.94666        0.16921       -0.38811
C         -0.54355        1.47453       -0.36812
Cl        -1.61505        2.81922       -0.44587
C          0.87577        1.62998       -0.29921
C          1.52129        2.90126       -0.24668
N          2.04380        3.93520       -0.20988
C          1.53746        0.41758       -0.26991
S          0.41750       -0.89161       -0.32899
C          2.97545        0.17869       -0.23977
S          4.05464        1.10712       -1.21831
C          5.42469        0.23555       -0.66320
H          6.41821        0.47921       -1.01152
C          5.07525       -0.72986        0.22881
Cl         6.19959       -1.79119        0.99192
C          3.66704       -0.77546        0.48261
C          3.06440       -1.68660        1.40057
N          2.57765       -2.43190        2.14288
C         -3.23783       -0.09905        0.65985
N         -2.96691        0.58954        1.76399
S         -4.33059        0.58738        2.65057
N         -5.30700       -0.28291        1.68270
C         -4.58453       -0.60582        0.61153
C         -5.03225       -1.38196       -0.49739
H         -6.04107       -1.77239       -0.54547
C         -4.13571       -1.61469       -1.48664
F         -4.45732       -2.32889       -2.56166
C         -2.79341       -1.10763       -1.44580
F         -2.02087       -1.40597       -2.48588
