31
COMP21_200310.log	Energy: -1896230.0814702
C          2.28066        0.23896       -0.08685
C          0.80987        0.19880       -0.05445
C          0.02991       -0.55204        0.76011
Cl         0.65308       -1.59230        1.99287
C         -1.38462       -0.39780        0.53160
C         -2.44678       -1.01494        1.18983
H         -2.26328       -1.72132        1.99270
C         -3.73012       -0.69282        0.77722
S         -5.22543       -1.32541        1.43240
C         -6.15925       -0.36596        0.32128
H         -7.23943       -0.41276        0.33561
C         -5.39041        0.38503       -0.49499
Cl        -6.02368        1.44649       -1.70887
C         -3.97203        0.23049       -0.27149
C         -2.91026        0.84885       -0.92761
H         -3.09319        1.55840       -1.72779
C         -1.62623        0.52446       -0.51553
S         -0.13674        1.15401       -1.17752
C          3.01492       -0.90324       -0.54001
N          2.48272       -2.04999       -0.96389
S          3.72862       -3.01193       -1.35458
N          4.97963       -2.03091       -1.02627
C          4.44928       -0.88980       -0.58069
C          5.17157        0.26654       -0.18480
H          6.25428        0.27681       -0.22276
C          4.45875        1.35483        0.23802
C          5.16534        2.53842        0.64097
N          5.75720        3.48181        0.95907
C          3.01099        1.34228        0.29267
C          2.33630        2.50996        0.78505
N          1.79921        3.45322        1.18930
