33
COMP27_140000.log	Energy: -1423339.9364253
C         -3.14944        0.79890       -0.21544
C         -1.81288        0.20537       -0.16272
C         -1.37713       -1.10140       -0.29531
O         -2.06752       -2.23229       -0.47085
C          0.04651       -1.19028       -0.26690
F          0.64471       -2.37757       -0.39188
C          0.71640       -0.01285       -0.10429
S         -0.43852        1.27693        0.03228
C          2.13536        0.26803       -0.00720
C          3.10996       -0.65626       -0.11223
C          4.52951       -0.37573       -0.01678
C          5.20235        0.79387        0.20009
F          4.62315        1.99732        0.38136
C          6.62169        0.69376        0.23061
O          7.44196        1.75034        0.43369
C          7.03597       -0.58878        0.03085
H          8.05222       -0.95236        0.00378
S          5.69582       -1.65550       -0.19156
C         -4.35528        0.06609        0.07780
N         -4.43997       -1.22978        0.38052
S         -6.01417       -1.57571        0.63240
N         -6.65219       -0.10857        0.37498
C         -5.64516        0.71418        0.07506
C         -5.76575        2.09836       -0.22597
H         -6.73996        2.57198       -0.21954
C         -4.61529        2.76821       -0.51735
H         -4.65403        3.82517       -0.76155
C         -3.33980        2.13054       -0.51701
H         -2.47944        2.73943       -0.77729
H         -2.99332       -2.09345       -0.17680
H          2.40076        1.30728        0.16042
H          2.84410       -1.69451       -0.28242
H          6.89625        2.53947        0.54752
