41
COMP59_000030.log	Energy: -1715570.6784934
C         -1.99821        0.77266        0.09898
C         -0.54824        0.73051        0.04034
C          0.27930       -0.35945        0.16210
C          1.63998        0.00467        0.06560
C          1.83703        1.34919       -0.13576
S          0.35743        2.21225       -0.21696
C          3.25635        1.61302       -0.22880
C          3.94294        0.42992       -0.09764
C          2.97276       -0.71878        0.11461
C          3.31763       -1.41146        1.43938
O          4.33110       -2.05150        1.58213
O          2.40655       -1.20869        2.38503
C          2.69512       -1.81438        3.64863
C          2.97835       -1.82726       -0.94484
O          2.23956       -2.77944       -0.87625
O          3.85428       -1.61384       -1.92083
C          3.88831       -2.62061       -2.93676
C          5.35050        0.58538       -0.15907
C          5.69327        1.89408       -0.34697
H          6.68503        2.31494       -0.43862
S          4.31359        2.94771       -0.44405
C         -2.81366        1.79972        0.50273
H         -2.45926        2.75740        0.86664
N         -4.15577        1.56108        0.45335
C         -4.39036        0.35463        0.01986
S         -2.97877       -0.57816       -0.38021
C         -5.72272       -0.20776       -0.13137
S         -7.14056        0.71601        0.26969
C         -8.09775       -0.63833       -0.19299
H         -9.17676       -0.61270       -0.13849
C         -7.29732       -1.66134       -0.60524
H         -7.64831       -2.62622       -0.94966
N         -5.95141       -1.41410       -0.56876
H         -0.07396       -1.36953        0.33033
H          2.79639       -2.89569        3.53489
H          1.84770       -1.56934        4.28709
H          3.62031       -1.40633        4.06193
H          4.63152       -2.28119       -3.65660
H          2.90829       -2.71805       -3.40882
H          4.17765       -3.58121       -2.50497
H          6.06278       -0.22445       -0.06885
