32
COMP52_040300.log	Energy: -1615856.4859453
C         -0.55730        0.25507        0.00124
C          0.80762       -0.21465        0.00166
C          1.20839       -1.53333        0.00391
H          0.52173       -2.37451        0.00634
C          2.60943       -1.67992        0.00336
O          3.28042       -2.86093        0.00523
C          3.29500       -0.47925        0.00071
S          2.17826        0.85285       -0.00083
C          4.72723       -0.28649       -0.00061
S          5.86833       -1.60944       -0.00135
C          7.20367       -0.52950       -0.00335
H          8.21234       -0.91909       -0.00442
C          6.82142        0.77805       -0.00341
H          7.51101        1.61521       -0.00415
C          5.40497        0.91394       -0.00179
O          4.72703        2.08755       -0.00136
C         -1.08398        1.53866        0.00193
C         -0.31622        2.74433        0.00236
N          0.30613        3.72267        0.00285
N         -2.45056        1.63902        0.00138
C         -2.99320        0.46164        0.00059
S         -1.87858       -0.87415        0.00010
C         -4.42912        0.23710       -0.00014
S         -5.55136        1.56947        0.00003
C         -6.83479        0.43342       -0.00129
H         -7.87248        0.73516       -0.00169
C         -6.33374       -0.84054       -0.00169
C         -7.14853       -2.01988       -0.00254
N         -7.82954       -2.95666       -0.00325
N         -4.96620       -0.94741       -0.00105
H          2.65425       -3.59349        0.00548
H          5.34318        2.82858       -0.00498
