38
COMP61_100021.log	Energy: -1316450.8129079
C          2.79316        0.66902       -0.13137
C          1.35924        0.54909       -0.07762
C          0.64200       -0.57186       -0.35945
F          1.20013       -1.68264       -0.81455
C         -0.77956       -0.44610       -0.19963
C         -1.80114       -1.39281       -0.36623
O         -1.61525       -2.69036       -0.69712
C         -0.79436       -3.49505        0.15663
C         -3.10811       -0.94191       -0.20183
S         -4.52542       -1.95323       -0.34343
C         -5.55293       -0.60230        0.04332
H         -6.62649       -0.71586        0.09014
C         -4.85586        0.53043        0.26629
F         -5.42516        1.69763        0.57930
C         -3.42831        0.39361        0.13245
C         -2.40444        1.33106        0.32559
O         -2.62850        2.62088        0.70301
C         -3.04801        3.48163       -0.35258
C         -1.10219        0.88696        0.15732
S          0.31344        1.89204        0.37187
C          3.76196       -0.26943        0.09639
C          3.96640       -1.63496        0.57561
O          3.21436       -2.53141        0.89951
N          5.38522       -1.72659        0.61908
H          5.85312       -2.56891        0.91498
C          6.00224       -0.54860        0.25533
H          7.07949       -0.45451        0.27552
C          5.04484        0.35587       -0.07209
C          4.83979        1.75873       -0.43709
O          5.59564        2.66522       -0.70727
N          3.42324        1.87270       -0.41924
H          2.95794        2.70104       -0.76021
H          0.12139       -3.77075       -0.36642
H         -1.36898       -4.39011        0.40545
H         -0.53629       -2.95917        1.07438
H         -3.15096        4.47289        0.08995
H         -4.01207        3.16288       -0.76013
H         -2.29779        3.50903       -1.15163
