27
COMP22_200100.log	Energy: -1857193.8943479
C          2.12525       -0.20335       -0.17299
C          0.72745       -0.55685        0.09167
C          0.23201       -1.60515        0.82154
Cl         1.21929       -2.74302        1.67603
C         -1.18552       -1.66274        0.87478
H         -1.73321       -2.40937        1.43672
C         -1.77031       -0.64350        0.17433
S         -0.58018        0.38208       -0.55663
C         -3.18978       -0.36702        0.00211
S         -4.34195       -1.66493       -0.09144
C         -5.65619       -0.56711       -0.26568
H         -6.67275       -0.92062       -0.36070
C         -5.21401        0.72068       -0.26868
Cl        -6.26371        2.09259       -0.42827
C         -3.80550        0.84949       -0.11482
H         -3.28960        1.80082       -0.06653
C          2.66326        1.08975        0.15190
N          1.98738        2.09248        0.70495
S          3.03945        3.32359        0.87062
N          4.38276        2.64074        0.25500
C          4.04597        1.40474       -0.10675
C          4.91709        0.44074       -0.69251
H          5.95921        0.66032       -0.88673
C          4.37735       -0.76459       -0.99372
F          5.10611       -1.72881       -1.55007
C          2.99810       -1.08084       -0.75007
F          2.60860       -2.29160       -1.13011
