35
COMP42_140003.log	Energy: -1577402.7601026
C         -1.19733       -1.70431        0.00638
C          0.22498       -1.45107        0.01169
C          1.22745       -2.38362        0.05242
F          1.03169       -3.71323        0.09437
C          2.54116       -1.87326        0.04927
O          3.65719       -2.63960        0.08517
C          2.55706       -0.49988        0.00462
S          0.93380        0.14339       -0.03448
C          3.72057        0.35808       -0.01154
S          5.35669       -0.26669        0.02036
C          6.03799        1.31679       -0.02320
H          7.10638        1.47301       -0.01899
C          5.06160        2.25382       -0.05963
F          5.24533        3.58284       -0.09866
C          3.73950        1.73003       -0.05378
O          2.62456        2.49187       -0.08667
C         -2.27177       -0.84682       -0.01876
C         -2.49188        0.61094       -0.05937
O         -1.69508        1.51174       -0.12566
N         -3.91375        0.76279       -0.05565
C         -4.59730        2.00095       -0.14545
O         -5.59765        2.16286       -0.78935
O         -3.98233        2.91863        0.59181
C         -4.53988        4.23109        0.50168
C         -4.60980       -0.48454       -0.04084
O         -5.80081       -0.63066       -0.01192
C         -3.53082       -1.49569       -0.01576
C         -3.46168       -2.84818        0.01502
H         -4.26336       -3.57343        0.02185
S         -1.81086       -3.35135        0.03776
H          3.39864       -3.57017        0.11044
H          2.87959        3.42376       -0.11110
H         -3.89800        4.85857        1.11800
H         -5.56433        4.23547        0.88075
H         -4.53604        4.57670       -0.53462
