41
COMP79_000021.log	Energy: -1694662.2428808
C         -1.13475       -1.40452        0.33407
C          0.24291       -0.96545        0.19210
C          0.81503        0.22482        0.57882
C          2.18863        0.27465        0.27655
C          2.66069       -0.87673       -0.30189
S          1.43326       -2.04489       -0.52519
C          4.08752       -0.74607       -0.53809
C          4.50572        0.49064       -0.11736
C          3.32561        1.28201        0.45708
O          3.21459        2.44788       -0.30734
C          2.03394        3.20287       -0.08760
O          3.39872        1.55640        1.82944
C          4.50769        2.33870        2.22837
C          5.87671        0.72893       -0.38675
C          6.46550       -0.35091       -0.98603
H          7.49712       -0.46198       -1.29030
S          5.35449       -1.65667       -1.24860
C         -2.33303       -0.71934        0.21495
C         -2.51489        0.70619       -0.15446
O         -1.60828        1.51012       -0.29978
C         -3.93020        1.11990       -0.33937
C         -4.30907        2.37525       -0.72033
H         -3.65824        3.20824       -0.94747
S         -6.01935        2.51447       -0.81103
C         -6.24767        0.88093       -0.32966
H         -7.23358        0.44876       -0.22755
C         -5.05240        0.25797       -0.11369
C         -4.88789       -1.15003        0.30074
O         -5.82502       -1.89939        0.50991
C         -3.47234       -1.58148        0.42035
C         -3.13175       -2.87107        0.69306
H         -3.81312       -3.69178        0.87053
S         -1.43339       -3.07885        0.72191
H          0.24968        1.01323        1.05216
H          2.19188        4.16365       -0.58050
H          1.86007        3.36714        0.98194
H          1.15848        2.71103       -0.52772
H          4.60520        3.23975        1.61227
H          5.43950        1.76076        2.17916
H          4.32239        2.62485        3.26510
H          6.40473        1.64779       -0.16406
