27
COMP42_020001.log	Energy: -1792369.5923070
C         -2.05900       -0.56831       -0.19099
C         -0.69318       -0.07765       -0.13931
C         -0.28894        1.20406        0.13450
H         -0.97528        2.01612        0.34479
C          1.12310        1.32894        0.11650
Cl         1.91368        2.83271        0.44727
C          1.79591        0.16708       -0.16242
S          0.66570       -1.12149       -0.42582
C          3.23389       -0.05992       -0.27046
S          4.16193        0.61142       -1.57692
C          5.61528       -0.09449       -0.98951
H          6.54821        0.06674       -1.51189
C          5.41554       -0.81705        0.14700
H          6.19125       -1.34213        0.68931
C          4.05057       -0.79376        0.54958
Cl         3.49532       -1.61182        1.97244
C         -3.24489        0.10031       -0.02062
C         -3.70663        1.48340        0.26774
O         -3.08808        2.50726        0.45186
N         -5.10227        1.38394        0.29243
H         -5.69480        2.18212        0.47207
C         -5.61175        0.09966        0.05740
O         -6.77784       -0.20481        0.03694
C         -4.39291       -0.72743       -0.14587
C         -4.11813       -2.02744       -0.41000
H         -4.79872       -2.85556       -0.55045
S         -2.40847       -2.25454       -0.50962
