29
COMP21_000110.log	Energy: -1328241.0074851
C          1.96066       -0.37275       -0.02060
C          0.49483       -0.38693       -0.01854
C         -0.32983        0.69552       -0.09069
H          0.03759        1.70945       -0.16252
C         -1.72503        0.36507       -0.05293
C         -2.81875        1.23349       -0.10712
H         -2.66795        2.30518       -0.19216
C         -4.08781        0.68022       -0.04994
S         -5.61117        1.54396       -0.09793
C         -6.49658        0.04754        0.02826
H         -7.57822        0.07414        0.04016
C         -5.70495       -1.04425        0.10277
H         -6.08357       -2.05633        0.18690
C         -4.29940       -0.72074        0.06041
C         -3.20539       -1.58607        0.11287
H         -3.35347       -2.65826        0.19781
C         -1.93467       -1.03172        0.05591
S         -0.42123       -1.89722        0.09793
C          2.73026        0.85466        0.01178
N          2.23765        2.08973        0.05144
S          3.50227        3.11302        0.08206
N          4.72774        2.04497        0.04648
C          4.17635        0.83497        0.00968
C          4.90228       -0.38882       -0.02581
H          5.98433       -0.40980       -0.02803
C          4.16072       -1.51965       -0.05371
F          4.73088       -2.72142       -0.08699
C          2.72706       -1.50886       -0.05135
F          2.16769       -2.72008       -0.08040
