31
COMP22_320300.log	Energy: -1964119.0861622
C          2.32176        0.25332       -0.10695
C          0.88790        0.14101        0.20235
C          0.32578       -0.64463        1.18440
C          1.09573       -1.43711        2.08770
N          1.74645       -2.06600        2.81100
C         -1.09860       -0.53924        1.21517
Cl        -2.06738       -1.37495        2.36290
C         -1.59855        0.30185        0.25862
S         -0.31782        0.97775       -0.69255
C         -2.99474        0.63607       -0.00651
S         -3.64383        2.20128        0.37922
C         -5.19393        1.77074       -0.19296
H         -6.01282        2.47614       -0.16650
C         -5.23484        0.48252       -0.65793
C         -6.40916       -0.12785       -1.19355
N         -7.36736       -0.61362       -1.62718
C         -3.96105       -0.16507       -0.54994
Cl        -3.68822       -1.77961       -1.07618
C          3.05899       -0.92165       -0.46190
N          2.55198       -2.14918       -0.58124
S          3.79128       -3.11547       -0.97509
N          5.00410       -2.04073       -1.03097
C          4.46693       -0.85645       -0.72754
C          5.15544        0.38291       -0.66969
H          6.21793        0.43157       -0.87577
C          4.43714        1.50259       -0.34853
C          5.10790        2.77077       -0.28621
N          5.66676        3.78435       -0.24607
C          3.01990        1.44113       -0.05800
C          2.35286        2.65377        0.32392
N          1.81654        3.63297        0.63276
