52
COMP97_000002.log	Energy: -1479037.6053577
C          0.63152       -0.20850        0.39603
C         -0.82950       -0.31938        0.59059
C         -1.47425       -0.86641        1.66549
H         -0.95312       -1.20507        2.55382
C         -2.88387       -0.90770        1.50984
H         -3.55824       -1.27622        2.27384
C         -3.31052       -0.42244        0.29811
S         -1.95556        0.10937       -0.65117
C         -4.65250       -0.31857       -0.25389
C         -5.75455       -0.83628        0.31515
C         -7.10301       -0.70656       -0.21504
C         -7.57573        0.04699       -1.26209
H         -6.94655        0.70032       -1.85551
C         -8.97236       -0.10459       -1.47778
H         -9.52196        0.41091       -2.25654
C         -9.55325       -0.96552       -0.59218
H        -10.59277       -1.25539       -0.52721
S         -8.40223       -1.60434        0.51469
C          1.33550       -1.43358        0.27262
C          2.68486       -1.46949        0.03429
C          3.36169       -2.78927       -0.09543
O          2.79811       -3.84976        0.04791
N          4.72894       -2.71983       -0.38980
O          5.34547       -3.91353       -0.64917
C          5.91151       -4.46594        0.54067
C          5.52454       -1.57582       -0.53297
O          6.71247       -1.65675       -0.74781
C          4.80120       -0.28358       -0.38387
C          5.50118        0.89314       -0.51996
H          6.56400        0.85180       -0.73200
C          4.83552        2.12291       -0.38356
C          3.48672        2.16130       -0.10819
C          2.83611        3.48853        0.03815
O          3.41181        4.54191       -0.11778
N          1.48341        3.43261        0.37335
O          0.90765        4.62838        0.70778
C          0.26798        5.21810       -0.42462
C          0.67316        2.29986        0.56574
O         -0.47440        2.43145        0.91799
C          1.33945        0.98594        0.30684
C          2.73727        0.96618        0.03630
C          3.41334       -0.26658       -0.10823
H         -4.74474        0.21659       -1.19661
H         -5.65569       -1.39924        1.24115
H          0.78932       -2.36755        0.35177
H          6.37011       -5.40068        0.21707
H          5.13081       -4.67069        1.27918
H          6.67640       -3.79787        0.94724
H          5.36814        3.06161       -0.49077
H         -0.15865        6.14695       -0.04501
H         -0.52975        4.56855       -0.79716
H          0.99991        5.43609       -1.20799
