30
COMP42_000000.log	Energy: -1240256.2048068
C         -1.23598        0.67399       -0.02078
C          0.10040        0.11636        0.02511
C          0.44714       -1.21010        0.12129
H         -0.29359       -1.99973        0.17439
C          1.84769       -1.41298        0.15610
H          2.31022       -2.38833        0.25534
C          2.57190       -0.24921        0.08460
S          1.51951        1.12416       -0.04484
C          4.01537       -0.07369        0.09891
S          5.07018       -1.33563       -0.46448
C          6.47039       -0.39654       -0.11318
H          7.45493       -0.80143       -0.30235
C          6.14592        0.82681        0.39390
H          6.88085        1.56903        0.68110
C          4.74074        1.01280        0.51667
H          4.28256        1.90769        0.92302
C         -2.45961        0.05115        0.00286
C         -2.99979       -1.32723        0.07903
O         -2.43489       -2.39802        0.15359
N         -4.39404       -1.17527        0.04987
C         -5.32011       -2.28516        0.10128
C         -4.81744        0.15630       -0.03474
O         -5.97108        0.51344       -0.07216
C         -3.56119        0.94568       -0.06358
C         -3.21862        2.25301       -0.13717
H         -3.85412        3.12546       -0.19610
S         -1.49543        2.40543       -0.12447
H         -4.73419       -3.20142        0.17944
H         -5.93099       -2.31015       -0.80477
H         -5.97847       -2.18802        0.96814
