36
COMP73_000021.log	Energy: -1123256.8912446
C         -0.74611       -0.98941       -0.38200
C         -2.02643       -0.31825       -0.08027
C         -2.29880        0.92995       -0.65311
C         -3.50783        1.57005       -0.40639
O         -3.84767        2.78602       -0.90414
C         -2.87436        3.48813       -1.64526
C         -4.46938        0.94943        0.39881
H         -5.41189        1.45804        0.57141
C         -4.20622       -0.28610        0.96247
C         -2.99010       -0.92679        0.72857
O         -2.77107       -2.16424        1.28266
C         -1.98962       -2.12956        2.46671
C          0.55042       -0.53664       -0.25182
C          0.97652        0.74800        0.36537
O          0.21111        1.58249        0.81521
C          2.44858        0.94844        0.40701
C          3.05099        2.05755        0.92795
H          2.56220        2.91395        1.37169
S          4.76243        1.95760        0.80631
C          4.68794        0.41629        0.04960
H          5.58167       -0.11460       -0.24829
C          3.39685       -0.00010       -0.10031
C          2.98313       -1.28519       -0.70542
O          3.77648       -2.10336       -1.13600
C          1.51590       -1.49163       -0.73532
C          0.93948       -2.63049       -1.21505
H          1.45614       -3.48956       -1.62097
S         -0.76452       -2.57737       -1.08374
H         -1.54026        1.38477       -1.27685
H         -3.32162        4.45260       -1.88828
H         -2.62174        2.96394       -2.57631
H         -1.96035        3.64543       -1.05872
H         -4.93949       -0.78141        1.59059
H         -1.87220       -3.16453        2.79223
H         -2.49452       -1.55082        3.25071
H         -1.00108       -1.69089        2.28042
