29
COMP22_040000.log	Energy: -1250279.8977728
C          1.96514        0.70657        0.12371
C          0.61934        0.13643        0.11323
C          0.24578       -1.17658        0.24075
H          0.95747       -1.98528        0.34982
C         -1.15950       -1.35290        0.21148
O         -1.79200       -2.55176        0.32944
C         -1.87412       -0.18620        0.05784
S         -0.77578        1.16256       -0.05640
C         -3.31137       -0.03085       -0.01923
S         -4.41055       -1.38599        0.07074
C         -5.78111       -0.36280       -0.09479
H         -6.77583       -0.78637       -0.09509
C         -5.43768        0.94985       -0.21197
H         -6.15210        1.75886       -0.32320
C         -4.02673        1.13612       -0.16869
O         -3.39698        2.33898       -0.25877
C          3.14240       -0.11550       -0.02071
N          3.17359       -1.44025       -0.17095
S          4.73951       -1.86609       -0.28922
N          5.44471       -0.40806       -0.15768
C          4.45901        0.47949       -0.01480
C          4.62565        1.88512        0.13210
H          5.62063        2.31433        0.13410
C          3.49669        2.63593        0.26879
H          3.57583        3.71186        0.38919
C          2.19378        2.05510        0.27000
H          1.34895        2.72441        0.40408
H         -1.13457       -3.25629        0.34479
H         -4.05125        3.03258       -0.39689
