50
COMP61_000032.log	Energy: -1477785.9167568
C         -2.30522       -0.86537        0.10422
C         -0.87328       -0.68981        0.09034
C         -0.26668        0.52319        0.22143
H         -0.80952        1.45066        0.36050
C          1.16221        0.43603        0.13757
C          2.08822        1.49289        0.21723
C          1.59864        2.87133        0.52672
O          0.58281        3.12380        1.12900
O          2.43419        3.81152        0.06756
C          2.06408        5.16029        0.36119
C          3.43948        1.19467        0.05261
S          4.78092        2.32113        0.09418
C          5.90946        1.02094       -0.11685
H          6.96804        1.24298       -0.15983
C          5.33852       -0.19666       -0.23298
H          5.88334       -1.11605       -0.37975
C          3.89918       -0.14041       -0.13999
C          2.97404       -1.20166       -0.20591
C          3.47379       -2.59147       -0.41407
O          4.63286       -2.91765       -0.54285
O          2.47325       -3.48175       -0.44701
C          2.84911       -4.84215       -0.65728
C          1.61028       -0.89592       -0.07629
S          0.26224       -2.01007       -0.14075
C         -3.30285        0.07959        0.04679
C         -3.51391        1.50539       -0.11316
O         -2.78352        2.47625       -0.16637
N         -4.93763        1.56943       -0.23425
O         -5.62913        2.74544       -0.19813
C         -5.57768        3.39314       -1.47245
C         -5.55267        0.35022       -0.09648
H         -6.63004        0.27588       -0.13777
C         -4.57878       -0.58515        0.06646
C         -4.36780       -2.02312        0.15192
O         -5.09572       -2.98708        0.22044
N         -2.94102       -2.09551        0.17063
O         -2.28046       -3.28534        0.20616
C         -2.23416       -3.80240        1.54215
H          2.86075        5.77635       -0.05315
H          1.98100        5.30714        1.44023
H          1.10665        5.39713       -0.10784
H          1.91556       -5.40306       -0.65381
H          3.50989       -5.18208        0.14316
H          3.36104       -4.95061       -1.61600
H         -6.15826        4.30749       -1.34418
H         -6.03140        2.76167       -2.24444
H         -4.54447        3.63596       -1.73208
H         -1.69428       -4.74572        1.45551
H         -3.24740       -3.97811        1.91102
H         -1.68945       -3.11666        2.19958
