42
COMP72_420002.log	Energy: -2341903.7724535
C         -0.38324       -1.40518       -0.33226
C          0.88651       -0.70349       -0.44911
C          1.26122        0.30964       -1.30979
O          0.48323        0.96547       -2.16771
C          2.66529        0.58737       -1.23103
Cl         3.39445        1.82421       -2.18485
C          3.34156       -0.18691       -0.33362
S          2.26367       -1.28838        0.45564
C          4.76231       -0.14437        0.00715
S          5.95346       -0.87039       -1.02263
C          7.23823       -0.39932        0.02925
H          8.26438       -0.64169       -0.21149
C          6.77799        0.27961        1.11890
O          7.49070        0.79893        2.14276
C          5.35354        0.42156        1.10169
Cl         4.50164        1.25269        2.34977
C         -1.70354       -0.98370       -0.26189
C         -2.18899        0.40803       -0.26556
O         -1.46188        1.37800       -0.49246
C         -3.61595        0.57776        0.01997
C         -4.23752        1.79521        0.11993
O         -3.65364        2.98064        0.01544
C         -4.44597        4.15080        0.13535
S         -5.96378        1.62887        0.42118
C         -5.82180       -0.12841        0.39364
O         -6.86881       -0.92469        0.57317
C         -8.14680       -0.34211        0.76224
C         -4.53536       -0.53162        0.17659
C         -4.08941       -1.92927        0.09811
O         -4.82753       -2.89395        0.20194
C         -2.62258       -2.08016       -0.09259
C         -2.01004       -3.29380       -0.05368
H         -2.49191       -4.25270        0.07841
S         -0.31352       -3.14547       -0.22221
H         -0.35248        1.17659       -1.68290
H          8.42890        0.63481        1.99157
H         -3.75607        4.98503        0.01696
H         -4.92049        4.20412        1.12253
H         -5.20907        4.18893       -0.65095
H         -8.83906       -1.17576        0.87188
H         -8.43645        0.26148       -0.10654
H         -8.16768        0.27274        1.67037
