42
COMP55_000430.log	Energy: -1274516.5690170
C          1.12374       -0.22515        0.33674
C         -0.27759       -0.65904        0.28763
C         -1.26893        0.29014        0.00539
C         -2.59971       -0.11730        0.00361
N         -3.78491        0.61326       -0.23876
C         -3.93287        1.97536       -0.45599
O         -4.98846        2.51968       -0.67866
O         -2.75966        2.61468       -0.38106
C         -2.82565        4.02413       -0.61258
C         -4.87939       -0.28269       -0.16749
C         -6.24143       -0.04764       -0.33882
C         -7.09820       -1.13495       -0.20614
H         -8.16445       -0.97815       -0.33715
C         -6.62248       -2.41782        0.08697
C         -5.26357       -2.64038        0.25550
C         -4.38786       -1.56419        0.12708
C         -2.94687       -1.45924        0.23525
C         -1.95376       -2.40113        0.49422
C         -0.62935       -1.99894        0.53242
C          1.62856        0.93763        0.87808
O          0.93003        1.91323        1.49320
N          2.97288        1.11189        0.80152
C          3.52649        0.08985        0.20898
S          2.44269       -1.16010       -0.29935
C          4.95736       -0.01921       -0.02127
S          6.04388        1.23424        0.48132
C          7.34574        0.29517       -0.15279
H          8.36932        0.63818       -0.10271
C          6.85908       -0.86999       -0.68254
O          7.55406       -1.86524       -1.27001
N          5.51162       -1.04428       -0.60679
H         -0.99750        1.30376       -0.25319
H         -1.80069        4.37887       -0.51256
H         -3.47290        4.50136        0.12595
H         -3.20887        4.22719       -1.61467
H         -6.61383        0.94070       -0.56663
H         -7.32258       -3.24193        0.18122
H         -4.88533       -3.63307        0.48112
H         -2.21609       -3.43912        0.67482
H          0.14784       -2.72085        0.76381
H          0.02400        1.60221        1.63022
H          8.49117       -1.63818       -1.26691
