40
COMP72_230000.log	Energy: -2268908.9787467
C         -1.10524       -1.63427       -0.70234
C          0.28269       -1.45739       -0.27266
C          0.92195       -2.05109        0.77808
Cl         0.17785       -3.19037        1.83400
C          2.26862       -1.60436        0.95051
C          3.11633       -2.06148        2.00304
N          3.80685       -2.43889        2.85412
C          2.63210       -0.66287        0.00656
S          1.33302       -0.34943       -1.08091
C          3.92131       -0.00150       -0.15297
S          5.40188       -0.88189       -0.01636
C          6.34669        0.51179       -0.34605
H          7.42609        0.46169       -0.35787
C          5.56672        1.60541       -0.55925
Cl         6.18443        3.17653       -0.91037
C          4.16662        1.32554       -0.45273
C          3.15594        2.32109       -0.60857
N          2.34430        3.13766       -0.74209
C         -2.17888       -0.81478       -0.45680
C         -2.13801        0.43748        0.34934
O         -1.11277        0.83826        0.87663
C         -3.43150        1.13655        0.45577
C         -3.60321        2.32054        1.12725
C         -2.59331        3.14414        1.86279
S         -5.25658        2.81818        1.02543
C         -5.73145        1.44802        0.08307
C         -7.14787        1.27026       -0.36571
C         -4.64741        0.63870       -0.14220
C         -4.69616       -0.61550       -0.91595
O         -5.71264       -1.06346       -1.42256
C         -3.38883       -1.30934       -1.04040
C         -3.20924       -2.48486       -1.71130
H         -3.96914       -3.05384       -2.22974
S         -1.57963       -3.00605       -1.65028
H         -2.15335        2.56646        2.68043
H         -3.04137        4.05352        2.27139
H         -1.77084        3.42022        1.19674
H         -7.77617        2.10634       -0.04771
H         -7.56086        0.34223        0.04010
H         -7.19419        1.18363       -1.45467
