29
COMP42_320001.log	Energy: -1908083.8699843
C         -2.59276        0.48035        0.04443
C         -1.15093        0.60153       -0.12808
C         -0.39415        1.75250       -0.29681
C         -0.90596        3.08121       -0.36250
N         -1.30322        4.16921       -0.41803
C          1.00269        1.48225       -0.42398
Cl         2.16826        2.72182       -0.67789
C          1.30276        0.15233       -0.34579
S         -0.12849       -0.79633       -0.12332
C          2.61664       -0.47844       -0.42879
S          3.07255       -1.45336       -1.79341
C          4.62186       -1.75898       -1.14201
H          5.33654       -2.37553       -1.66908
C          4.80333       -1.14288        0.06785
C          6.00880       -1.23350        0.82763
N          6.99193       -1.31465        1.43516
C          3.64114       -0.40912        0.47475
Cl         3.55571        0.44646        1.96452
C         -3.38409       -0.64359        0.08365
C         -3.22517       -2.12100       -0.02706
O         -2.23146       -2.79174       -0.18441
N         -4.52144       -2.62303        0.09854
H         -4.72149       -3.61294        0.06814
C         -5.51607       -1.65209        0.28926
O         -6.69363       -1.86435        0.42581
C         -4.76069       -0.37214        0.27745
C         -5.05121        0.94725        0.39668
H         -6.01046        1.42349        0.54705
S         -3.61777        1.88834        0.26674
