48
COMP61_100003.log	Energy: -1508001.0779095
C         -1.52022        0.80486        0.19089
C         -0.13744        0.37983        0.16369
C          0.91842        1.03066       -0.39417
F          0.77257        2.20132       -1.02371
C          2.18729        0.36828       -0.29577
C          3.45375        0.77250       -0.74804
C          3.73742        2.06731       -1.46101
C          4.48705       -0.12103       -0.48947
S          6.15750        0.15506       -0.95170
C          6.63510       -1.36808       -0.26199
H          7.66373       -1.69742       -0.28953
C          5.59484       -2.03102        0.27720
F          5.73468       -3.22507        0.86602
C          4.31658       -1.36214        0.17830
C          3.05269       -1.76499        0.62789
C          2.77018       -3.05702        1.34689
C          2.01562       -0.86940        0.37390
S          0.35497       -1.15998        0.83560
C         -2.65238        0.05181        0.10257
C         -3.09693       -1.33105       -0.06946
O         -2.50284       -2.37849       -0.06658
N         -4.53796       -1.17155       -0.22900
C         -5.52190       -2.15428       -0.41455
O         -6.69136       -1.87525       -0.53658
O         -5.00451       -3.37154       -0.43767
C         -5.95341       -4.42350       -0.63108
C         -4.90120        0.17712       -0.17739
H         -5.93712        0.45005       -0.31543
C         -3.79463        0.91507        0.03391
C         -3.34855        2.30262        0.12189
O         -3.95279        3.34132        0.17042
N         -1.90348        2.16399        0.20582
C         -1.07066        3.20456        0.68802
O         -0.21897        3.04622        1.52453
O         -1.37749        4.34452        0.09204
C         -0.66196        5.48473        0.57155
H          2.85371        2.69510       -1.54750
H          4.11937        1.87333       -2.47055
H          4.50728        2.63457       -0.92447
H          3.64187       -3.70661        1.38215
H          1.95715       -3.60070        0.85107
H          2.45003       -2.85937        2.37715
H         -5.36839       -5.34141       -0.61005
H         -6.45723       -4.30854       -1.59331
H         -6.69630       -4.41960        0.16928
H         -1.06014        6.32947        0.01220
H          0.40716        5.36280        0.38408
H         -0.83011        5.61834        1.64228
