40
COMP67_110002.log	Energy: -1441607.8361006
C          2.69027       -0.61269        0.04513
C          1.27372       -0.84961       -0.06312
C          0.57562       -1.99143       -0.38004
F          1.10457       -3.15930       -0.71612
C         -0.82354       -1.81882       -0.37762
F         -1.64199       -2.83162       -0.67004
C         -1.23093       -0.54578       -0.06768
S          0.15481        0.45686        0.20728
C         -2.56062        0.02194        0.03752
C         -3.70247       -0.67449       -0.12582
C         -5.03585       -0.11599       -0.01833
C         -5.45236        1.15616        0.26945
F         -4.63868        2.18204        0.52135
C         -6.86449        1.31269        0.28263
F         -7.43248        2.48544        0.54586
C         -7.53349        0.16392        0.00548
H         -8.60214        0.01991       -0.04728
S         -6.43012       -1.12878       -0.27604
C          3.38436        0.56834       -0.05167
C          3.21917        1.96057       -0.44492
O          2.26353        2.66211       -0.71090
N          4.56787        2.42300       -0.40625
O          4.93580        3.68338       -0.77000
C          4.62144        4.62232        0.26373
C          5.47562        1.45360       -0.05495
H          6.53081        1.68409       -0.01778
C          4.78130        0.30873        0.17612
C          4.94981       -1.09834        0.49433
O          5.88595       -1.77656        0.84681
N          3.62270       -1.61635        0.28735
O          3.24882       -2.77839        0.91185
C          3.73604       -3.91846        0.19623
H         -2.60620        1.08237        0.26418
H         -3.65232       -1.73477       -0.35313
H          4.97688        5.58123       -0.11529
H          5.14651        4.36494        1.19045
H          3.54201        4.65850        0.42953
H          3.23290       -4.76934        0.65704
H          4.81802       -4.00156        0.31510
H          3.46722       -3.85048       -0.86058
