29
COMP22_220400.log	Energy: -2403840.1605944
C         -2.53559       -0.20298       -0.26621
C         -1.11236       -0.24690        0.09078
C         -0.49007       -1.06982        0.98921
Cl        -1.31320       -2.23448        1.95765
C          0.91739       -0.84427        1.07895
Cl         1.94702       -1.71225        2.15281
C          1.35419        0.14778        0.24446
S          0.03305        0.81375       -0.65510
C          2.71695        0.63999        0.06604
S          3.19213        2.21303        0.62594
C          4.80110        2.00103        0.06383
H          5.54498        2.77504        0.18665
C          4.97132        0.78256       -0.51737
Cl         6.46785        0.24066       -1.18605
C          3.77436       -0.00055       -0.52194
Cl         3.67387       -1.57176       -1.21781
C         -3.32811        0.97288       -0.04320
N         -2.89446        2.11628        0.47558
S         -4.17759        3.12436        0.52155
N         -5.32540        2.15032       -0.11115
C         -4.72964        0.99416       -0.38051
C         -5.35428       -0.15657       -0.94593
H         -6.41098       -0.13587       -1.19183
C         -4.57816       -1.25081       -1.15437
O         -5.00693       -2.42660       -1.68729
C         -3.16499       -1.28288       -0.82854
O         -2.48571       -2.40635       -1.10359
H         -5.94752       -2.37956       -1.89650
H         -3.10454       -3.05921       -1.46368
