32
COMP48_000003.log	Energy: -1155241.5974546
C          0.57851        0.67348        0.00072
C          1.60139       -0.34703        0.02127
C          2.96245       -0.14191       -0.01278
O          3.53698        1.08393       -0.04879
C          4.91902        1.03983       -0.40359
C          5.62506       -0.07966        0.34155
O          5.08692       -1.34388       -0.02438
C          3.72701       -1.34487        0.00731
C          2.94070       -2.45451        0.04761
H          3.26823       -3.48375        0.07475
S          1.26459       -2.06178        0.07160
C         -0.79456        0.58185        0.01635
C         -1.80560       -0.48827        0.08266
O         -1.66708       -1.68097        0.18465
N         -3.06209        0.19577        0.05375
C         -4.32857       -0.42882        0.15715
O         -5.24759        0.02809        0.78071
O         -4.34197       -1.55893       -0.54138
C         -5.54568       -2.31942       -0.42645
C         -2.92264        1.61676        0.00150
O         -3.81883        2.41385       -0.05469
C         -1.46057        1.83155       -0.02046
C         -0.63290        2.90237       -0.06604
H         -0.88040        3.95435       -0.09823
S          1.01223        2.37777       -0.06347
H          5.33233        2.01309       -0.13473
H          5.01186        0.89053       -1.48615
H          5.52350        0.07013        1.42454
H          6.68459       -0.10849        0.08092
H         -5.36104       -3.23646       -0.98380
H         -6.38597       -1.76847       -0.85502
H         -5.75674       -2.54205        0.62188
