54
COMP87_020000.log	Energy: -1916443.1059563
C          0.17212        0.57395       -0.19855
C         -1.28267        0.76837       -0.28008
C         -2.02097        1.83147       -0.73975
Cl        -1.34337        3.28375       -1.41500
C         -3.42613        1.65268       -0.67599
H         -4.12962        2.40713       -1.00531
C         -3.77818        0.43202       -0.16076
S         -2.36221       -0.48177        0.25347
C         -5.09516       -0.14420        0.05892
C         -6.25070        0.42536       -0.32262
C         -7.57043       -0.13905       -0.08594
C         -7.94712       -1.20403        0.69227
H         -7.26897       -1.79547        1.29454
C         -9.34715       -1.43853        0.63881
Cl       -10.11220       -2.72177        1.52374
C        -10.02969       -0.56797       -0.15718
H        -11.09176       -0.53878       -0.35221
S         -8.95376        0.56839       -0.86842
C          0.74129       -0.65952       -0.53194
C          2.11507       -0.87503       -0.45971
C          2.96030        0.15775       -0.05609
C          4.40929        0.29513        0.18950
C          4.57618        1.71114        0.72041
O          5.58637        2.30820        1.04241
N          3.32576        2.28332        0.73345
C          3.07382        3.64420        1.13759
C          2.36110        1.38444        0.29954
C          1.00131        1.61532        0.24130
C          5.45639       -0.55493       -0.00911
C          5.33217       -1.85315       -0.79489
O          4.35971       -2.34382       -1.33863
N          6.58667       -2.40969       -0.84817
C          6.88149       -3.64914       -1.52188
C          7.50582       -1.63789       -0.14705
C          8.84353       -1.93023        0.05069
C          9.59267       -1.04296        0.82338
H         10.64601       -1.24331        0.99515
C          8.99989        0.08657        1.37733
C          7.65099        0.37065        1.16273
C          6.87960       -0.48797        0.37837
H         -5.11852       -1.10926        0.56092
H         -6.22569        1.37367       -0.85557
H          0.10376       -1.46489       -0.88338
H          2.52632       -1.83153       -0.74079
H          4.03586        4.10206        1.36914
H          2.43272        3.67338        2.02539
H          2.58955        4.19906        0.32723
H          0.58264        2.56735        0.54545
H          5.95730       -4.00437       -1.97843
H          7.24803       -4.39744       -0.81058
H          7.63656       -3.49421       -2.29985
H          9.29163       -2.82206       -0.37499
H          9.59186        0.76412        1.98402
H          7.20786        1.25775        1.58680
