43
COMP69_000002.log	Energy: -1217289.9274741
C          1.53292        0.75911        0.03145
C          0.11963        0.51155        0.03626
C         -0.91492        1.40121        0.29319
C         -2.17221        0.78589        0.21560
C         -2.08694       -0.55833       -0.09642
S         -0.48291       -1.10855       -0.29194
C         -3.42171       -1.10605       -0.14545
C         -4.32355       -0.10601        0.13612
C         -3.61936        1.21597        0.39865
C         -3.87960        1.71608        1.82907
C         -4.02762        2.28141       -0.63168
C         -5.66789       -0.55879        0.10806
C         -5.74354       -1.89091       -0.19394
H         -6.63284       -2.50002       -0.28228
S         -4.18768       -2.61454       -0.44803
C          2.60004       -0.10821       -0.05553
C          2.91369       -1.52215       -0.11169
O          2.25302       -2.54045       -0.19820
N          4.34035       -1.50140       -0.02296
O          5.10756       -2.60095       -0.28432
C          5.14314       -3.46698        0.85273
C          4.86807       -0.23278       -0.00394
H          5.93874       -0.08862        0.01709
C          3.82775        0.64144       -0.00715
C          3.51531        2.05820        0.09425
O          4.17328        3.07342        0.10701
N          2.08772        2.03328        0.14866
O          1.37377        3.19392        0.14857
C          1.25764        3.71782       -1.17890
H         -0.73734        2.43890        0.54083
H         -3.58006        0.96467        2.56511
H         -4.94377        1.93427        1.97033
H         -3.31546        2.63493        2.02238
H         -3.84274        1.92977       -1.65087
H         -3.46046        3.20518       -0.47343
H         -5.09304        2.51675       -0.53438
H         -6.53925        0.05644        0.30039
H          5.79360       -4.29051        0.55477
H          4.14101       -3.83979        1.07739
H          5.56537       -2.94823        1.72053
H          0.71165        4.65520       -1.06414
H          0.69315        3.02727       -1.81548
H          2.24831        3.91172       -1.59736
