44
COMP94_200002.log	Energy: -1958702.1589265
C         -0.08305       -0.27039       -0.13439
C         -1.54369       -0.47107       -0.01469
C         -2.31507       -0.27934        1.09183
Cl        -1.72157        0.33385        2.59581
C         -3.68011       -0.61193        0.86817
S         -5.12492       -0.59090        1.81749
C         -6.04307       -1.19351        0.47082
H         -7.10534       -1.36557        0.57040
C         -5.28032       -1.39705       -0.63663
Cl        -5.87999       -1.99123       -2.14619
C         -3.91291       -1.06227       -0.41404
S         -2.46905       -1.08492       -1.36285
C          0.72868       -1.42850       -0.08006
C          2.09687       -1.34347       -0.12902
C          2.90194       -2.59484       -0.06715
O          2.41623       -3.69822        0.02812
N          4.28772       -2.40377       -0.11200
O          5.04531       -3.54027       -0.18875
C          5.40973       -4.00065        1.11412
C          4.99084       -1.19392       -0.17966
O          6.19994       -1.16523       -0.17383
C          4.13903        0.02586       -0.23995
C          4.74293        1.25944       -0.31201
H          5.82607        1.31540       -0.32409
C          3.95686        2.42437       -0.36531
C          2.58312        2.34068       -0.35445
C          1.79722        3.60082       -0.40710
O          2.29526        4.70336       -0.42027
N          0.41359        3.41862       -0.43517
O         -0.32661        4.54565       -0.66750
C         -0.75280        5.13492        0.56204
C         -0.31208        2.21778       -0.40666
O         -1.51660        2.23390       -0.49287
C          0.51393        0.97741       -0.26193
C          1.93144        1.08333       -0.28426
C          2.72771       -0.08286       -0.22070
H          0.26384       -2.40451        0.01423
H          5.99777       -4.90036        0.93138
H          4.51772       -4.25199        1.69546
H          6.02133       -3.25371        1.62870
H          4.41740        3.40498       -0.41605
H         -1.33181        6.00842        0.26098
H          0.11088        5.44724        1.15668
H         -1.38864        4.44251        1.12177
