32
COMP42_140000.log	Energy: -1459122.7637202
C         -1.94722        0.98786       -0.00059
C         -0.50198        1.02892        0.00018
C          0.29538        2.14173        0.00108
F         -0.15954        3.40752        0.00192
C          1.68495        1.90098        0.00107
O          2.62708        2.87433        0.00221
C          1.97179        0.55751        0.00002
S          0.50706       -0.39430       -0.00078
C          3.28115       -0.05611       -0.00007
S          4.76405        0.87569        0.00101
C          5.74112       -0.54507        0.00030
H          6.81942       -0.48905        0.00038
C          4.96562       -1.65476       -0.00107
F          5.40463       -2.92347       -0.00143
C          3.56678       -1.39857       -0.00121
O          2.62101       -2.36336       -0.00321
C         -2.81939       -0.07144       -0.00065
C         -2.75279       -1.55107        0.00071
O         -1.79613       -2.29348        0.00193
N         -4.09047       -1.97702        0.00047
C         -4.48305       -3.36896        0.00401
C         -5.01762       -0.92879       -0.00077
O         -6.21810       -1.06699       -0.00056
C         -4.18835        0.30279       -0.00161
C         -4.39859        1.63973       -0.00250
H         -5.33266        2.18422       -0.00307
S         -2.88565        2.47645       -0.00162
H          2.18824        3.73510        0.00297
H          3.05241       -3.22818        0.00323
H         -3.57130       -3.96728       -0.01153
H         -5.09123       -3.59248       -0.87606
H         -5.06263       -3.59739        0.90215
