46
COMP92_200000.log	Energy: -1912983.0051900
C          0.66859       -0.26230        0.27022
C         -0.77331       -0.42914        0.55505
C         -1.34875       -0.84237        1.72054
Cl        -0.44239       -1.16898        3.16309
C         -2.76580       -0.94634        1.67052
H         -3.37776       -1.22185        2.52069
C         -3.26032       -0.62361        0.43809
S         -1.98249       -0.20712       -0.66241
C         -4.64738       -0.61169       -0.00530
S         -5.78742       -1.76881        0.61121
C         -7.06696       -1.10005       -0.32696
H         -8.06741       -1.50495       -0.27859
C         -6.61998       -0.05854       -1.08146
Cl        -7.63464        0.85418       -2.15291
C         -5.23817        0.23281       -0.90532
H         -4.72640        1.04847       -1.40145
C          1.40800       -1.44962        0.04599
C          2.74995       -1.41445       -0.23740
C          3.48373       -2.68976       -0.46782
O          2.92845       -3.76822       -0.41048
N          4.84769       -2.57939       -0.75278
C          5.61561       -3.80208       -0.98189
C          5.55890       -1.38154       -0.84229
O          6.74682       -1.38785       -1.09765
C          4.80060       -0.12298       -0.61290
C          5.44842        1.08857       -0.68914
H          6.50861        1.10515       -0.91717
C          4.73599        2.28122       -0.46978
C          3.39065        2.24923       -0.17546
C          2.67704        3.53175        0.05383
O          3.23936        4.60602       -0.02748
N          1.32317        3.43312        0.37210
C          0.57945        4.66352        0.63882
C          0.59769        2.24513        0.50014
O         -0.56743        2.29371        0.83740
C          1.31468        0.96625        0.21069
C          2.70038        1.01698       -0.09120
C          3.42062       -0.17624       -0.31660
H          0.90430       -2.40893        0.09887
H          4.93217       -4.64427       -0.90611
H          6.40735       -3.88494       -0.23467
H          6.07325       -3.76803       -1.97220
H          5.23133        3.24416       -0.52792
H          1.24129        5.50202        0.43667
H          0.25116        4.68154        1.68023
H         -0.30121        4.70410       -0.00417
