35
COMP35_000000.log	Energy: -743215.5190493
C          2.15505       -0.15152       -0.09391
C          0.68726       -0.36260       -0.18187
C         -0.17752        0.60799        0.31985
C         -1.54821        0.38565        0.21832
N         -2.60191        1.18103        0.63592
C         -2.52212        2.46539        1.28563
C         -3.78723        0.54479        0.31542
C         -5.09666        0.97119        0.53981
C         -6.12316        0.13651        0.11943
H         -7.15304        0.44052        0.28122
C         -5.85945       -1.08952       -0.50891
C         -4.55405       -1.50551       -0.72963
C         -3.50420       -0.68498       -0.31608
C         -2.06280       -0.78776       -0.37783
C         -1.18268       -1.74809       -0.87516
C          0.18207       -1.53492       -0.77461
C          3.00660       -1.12847        0.42692
F          2.50916       -2.28341        0.87755
C          4.37927       -0.93048        0.50611
F          5.14364       -1.89724        1.01906
C          4.95499        0.25059        0.07025
H          6.02494        0.40458        0.13451
C          4.12484        1.23002       -0.44722
F          4.64073        2.38173       -0.88346
C          2.75228        1.03390       -0.52878
F          2.00599        2.01423       -1.04753
H          0.22151        1.50882        0.77282
H         -1.47828        2.71361        1.47968
H         -3.05419        2.44571        2.24315
H         -2.95405        3.25113        0.65543
H         -5.30859        1.91954        1.02379
H         -6.68660       -1.71720       -0.82505
H         -4.35223       -2.45520       -1.21685
H         -1.56208       -2.65419       -1.33820
H          0.87460       -2.27552       -1.15904
