44
COMP67_120003.log	Energy: -2036174.5411155
C         -2.42997       -0.62458       -0.18787
C         -1.01906       -0.81049        0.09105
C         -0.40116       -1.75089        0.88012
Cl        -1.19482       -2.97804        1.79190
C          1.00081       -1.58086        0.92443
F          1.77710       -2.38767        1.64657
C          1.47347       -0.52565        0.18427
S          0.14341        0.28124       -0.57489
C          2.82639       -0.04417       -0.02038
C          3.93357       -0.64626        0.45488
C          5.28821       -0.16926        0.24961
C          5.75741        0.92916       -0.42151
F          4.97593        1.81077       -1.04309
C          7.17264        1.06731       -0.41001
Cl         7.98463        2.37313       -1.19333
C          7.78481        0.06405        0.27721
H          8.84432       -0.07157        0.43776
S          6.63765       -1.04875        0.90985
C         -3.15031        0.52768       -0.16078
C         -3.01763        1.95139        0.15588
O         -2.06017        2.63515        0.40816
N         -4.39914        2.40959        0.07578
C         -4.91640        3.70178        0.26045
O         -6.09527        3.94137        0.14923
O         -3.96701        4.57108        0.56178
C         -4.41958        5.91256        0.76423
C         -5.25976        1.35380       -0.23736
H         -6.32208        1.53992       -0.29866
C         -4.53279        0.23051       -0.39362
C         -4.67992       -1.20653       -0.61470
O         -5.63191       -1.88220       -0.90047
N         -3.31465       -1.68941       -0.45922
C         -2.87318       -2.94687       -0.93674
O         -1.82527       -3.10896       -1.50892
O         -3.76559       -3.88152       -0.65834
C         -3.45469       -5.18047       -1.16795
H          2.92061        0.86677       -0.60256
H          3.83740       -1.55969        1.03326
H         -3.52494        6.47653        1.02235
H         -5.14962        5.95023        1.57544
H         -4.87258        6.30329       -0.14957
H         -4.30813       -5.80242       -0.90345
H         -2.54061       -5.55787       -0.70407
H         -3.32412       -5.14339       -2.25159
