33
COMP27_200400.log	Energy: -1875621.5041313
C          2.83146        0.43861        0.01002
C          1.49528       -0.15947       -0.01279
C          1.19048       -1.49952       -0.05087
H          1.93378       -2.28208       -0.07118
C         -0.20136       -1.74171       -0.05999
Cl        -0.83981       -3.35745       -0.10677
C         -0.98620       -0.61404       -0.03106
S          0.02694        0.79329        0.01211
C         -2.43311       -0.55384       -0.03402
C         -3.15439        0.58284       -0.03628
C         -4.60198        0.71021       -0.03565
C         -5.63856       -0.18786        0.08500
Cl        -5.45694       -1.90099        0.30259
C         -6.93668        0.39404        0.03360
H         -7.84926       -0.18269        0.11583
C         -6.88684        1.74419       -0.12596
H         -7.71476        2.43559       -0.19567
S         -5.26698        2.31240       -0.21466
C          4.03282       -0.36894       -0.01213
N          4.09042       -1.69596       -0.05874
S          5.66483       -2.11737       -0.06569
N          6.34453       -0.63635       -0.00941
C          5.34557        0.23797        0.01592
C          5.50166        1.65222        0.06510
H          6.49176        2.09451        0.08656
C          4.36398        2.38948        0.08259
O          4.31354        3.74943        0.12769
C          3.04484        1.79815        0.05529
O          2.00374        2.65247        0.07774
H         -2.92657       -1.51891       -0.03848
H         -2.62352        1.53410       -0.04658
H          5.20466        4.11836        0.14397
H          2.34724        3.55852        0.10951
