42
COMP26_000400.log	Energy: -920963.9664113
C         -2.03332       -0.58733       -0.04066
C         -0.56136       -0.69909       -0.17181
C          0.26943        0.28058        0.38953
C          1.64119        0.17439        0.25138
C          2.71348        1.12307        0.76625
C          2.56101        2.51813        0.13656
C          2.68581        1.22314        2.29982
C          3.97766        0.43036        0.27740
C          5.29791        0.81937        0.44504
C          6.31169        0.02564       -0.09314
H          7.35002        0.31817        0.03301
C          6.00302       -1.14244       -0.79089
C          4.67776       -1.53642       -0.96229
C          3.66921       -0.74431       -0.42408
C          2.20929       -0.90191       -0.44134
C          1.39681       -1.88068       -1.00217
C          0.01747       -1.77210       -0.86371
C         -2.71142        0.66229       -0.26852
N         -2.13398        1.80749       -0.62506
S         -3.32269        2.91321       -0.77633
N         -4.61582        1.99350       -0.38975
C         -4.14586        0.77673       -0.13453
C         -4.92916       -0.35402        0.23510
H         -6.00513       -0.26289        0.34042
C         -4.26683       -1.52120        0.44277
O         -4.85659       -2.69421        0.80680
C         -2.82971       -1.64900        0.30785
O         -2.29925       -2.86562        0.55954
H         -0.16829        1.11961        0.92114
H          1.60607        2.96877        0.42801
H          2.59098        2.45626       -0.95532
H          3.36747        3.18181        0.46830
H          1.74032        1.66023        2.63970
H          3.50109        1.86125        2.65889
H          2.79376        0.23545        2.75816
H          5.54450        1.72946        0.98650
H          6.80322       -1.75000       -1.20348
H          4.44063       -2.44735       -1.50510
H          1.82422       -2.71946       -1.54450
H         -0.62513       -2.52978       -1.29860
H         -5.80954       -2.57419        0.89613
H         -3.02026       -3.45815        0.81965
