46
COMP77_410002.log	Energy: -1938175.7835836
C         -0.91656       -1.56460        0.42736
C          0.33846       -0.88608        0.70578
C          0.59212        0.06797        1.64155
F         -0.29704        0.55842        2.50639
C          1.93290        0.53544        1.67371
O          2.37502        1.48328        2.52965
C          2.73337       -0.09791        0.75732
S          1.80423       -1.25201       -0.16383
C          4.14302        0.15497        0.55424
C          4.96290       -0.53766       -0.26148
C          6.35482       -0.19342       -0.49916
C          6.91558        1.05953       -0.55206
O          6.29457        2.25148       -0.41183
C          8.31521        1.01186       -0.83150
F          9.03849        2.12702       -0.92197
C          8.80716       -0.24047       -0.99649
H          9.82836       -0.52056       -1.20715
S          7.55875       -1.41773       -0.81872
C         -2.17253       -1.04251        0.20635
C         -2.51008        0.40589        0.11177
O         -1.67903        1.28878        0.23816
C         -3.93360        0.67663       -0.16559
C         -4.46561        1.93186       -0.27388
O         -3.80028        3.07658       -0.15687
C         -4.51111        4.29544       -0.28078
S         -6.19728        1.88985       -0.59632
C         -6.17866        0.12942       -0.58202
O         -7.27657       -0.59182       -0.78184
C         -8.49896        0.08026       -1.02871
C         -4.92694       -0.36555       -0.34472
C         -4.59187       -1.79573       -0.28435
O         -5.39584       -2.69865       -0.44335
C         -3.15551       -2.06535       -0.01083
C         -2.63631       -3.32541        0.03590
H         -3.17724       -4.25026       -0.11035
S         -0.95605       -3.30270        0.36229
H          1.61651        1.82827        3.01957
H          4.54171        0.96326        1.16511
H          4.57817       -1.40653       -0.79574
H          5.33865        2.10464       -0.46413
H         -3.76938        5.08322       -0.15533
H         -5.27746        4.38542        0.49882
H         -4.97373        4.38376       -1.27143
H         -9.24638       -0.70196       -1.15476
H         -8.43966        0.68101       -1.94450
H         -8.77665        0.71767       -0.18024
