36
COMP57_320300.log	Energy: -2262538.8416419
C          2.08001       -0.16603       -0.42382
C          0.72755        0.36788       -0.47997
C          0.30099        1.61631       -0.85507
Cl         1.33363        2.87718       -1.41042
C         -1.11402        1.78085       -0.77189
C         -1.80186        2.97594       -1.13436
N         -2.37999        3.93634       -1.42859
C         -1.76056        0.64064       -0.33222
S         -0.62483       -0.61209        0.00414
C         -3.19163        0.48158       -0.16002
C         -3.80313       -0.70968       -0.02859
C         -5.22478       -0.92067        0.18011
C         -6.22087       -0.05396        0.59594
C         -6.00631        1.30967        0.94839
N         -5.81985        2.41761        1.23525
C         -7.50131       -0.69137        0.67236
Cl        -8.93063        0.13913        1.16314
C         -7.46828       -2.00714        0.32948
H         -8.29476       -2.70259        0.30759
S         -5.87918       -2.49862       -0.09632
C          2.52777       -1.40569       -0.83892
C          1.70578       -2.38878       -1.48011
N          1.02575       -3.17400       -1.99304
N          3.85050       -1.67552       -0.62713
C          4.42671       -0.66063       -0.05293
S          3.40422        0.70014        0.27814
C          5.84068       -0.63724        0.29245
S          6.87888       -1.98755       -0.06065
C          8.17624       -1.11789        0.64124
H          9.17535       -1.52535        0.70338
C          7.74114        0.10454        1.08084
C          8.58588        1.07248        1.71606
N          9.29107        1.83596        2.22669
N          6.41149        0.37222        0.88022
H         -3.75913        1.40814       -0.15934
H         -3.21052       -1.62097       -0.10043
