54
COMP82_440000.log	Energy: -1479847.3393659
C         -0.69533        0.41834        0.17154
C         -2.15191        0.53723        0.24948
C         -2.87246        1.56982        0.78417
O         -2.41650        2.71200        1.37639
C         -4.27990        1.37800        0.72722
O         -5.16022        2.28424        1.21728
C         -4.64560        0.19355        0.14264
S         -3.22402       -0.70363       -0.33964
C         -5.98597       -0.30605       -0.07294
S         -7.41028        0.58800        0.41287
C         -8.46597       -0.64985       -0.17944
H         -9.53834       -0.54146       -0.09407
C         -7.76392       -1.68272       -0.71482
O         -8.20406       -2.84230       -1.28286
C         -6.35136       -1.49034       -0.65640
O         -5.47017       -2.40090       -1.13660
C         -0.05045       -0.80990        0.35957
C          1.33548       -0.92465        0.31105
C          2.12419        0.20444        0.08359
C          3.56485        0.45733       -0.09796
C          3.65353        1.93068       -0.46358
O          4.62814        2.61947       -0.69939
N          2.36954        2.42741       -0.43501
C          2.04150        3.80192       -0.71876
C          1.45570        1.42646       -0.13741
C          0.08112        1.56172       -0.09478
C          4.65978       -0.34222        0.04666
C          4.59738       -1.71433        0.69992
O          3.64634       -2.30554        1.17753
N          5.88151       -2.20290        0.72486
C          6.23766       -3.47761        1.29492
C          6.76733       -1.31147        0.13069
C          8.12409       -1.50343       -0.06045
C          8.83385       -0.49625       -0.71458
H          9.90056       -0.61689       -0.87815
C          8.18571        0.64980       -1.16223
C          6.81747        0.83031       -0.95767
C          6.08385       -0.15085       -0.28969
H         -1.49122        2.58816        1.62906
H         -4.64988        2.99377        1.63283
H         -9.16731       -2.86549       -1.27592
H         -5.97610       -3.14303       -1.49629
H         -0.64328       -1.69368        0.57363
H          1.80076       -1.88353        0.47702
H          2.97636        4.32719       -0.91626
H          1.53913        4.26357        0.13817
H          1.39031        3.87212       -1.59678
H         -0.39263        2.50948       -0.33198
H          5.32984       -3.91809        1.70825
H          6.97666       -3.34890        2.09292
H          6.64975       -4.14418        0.52938
H          8.61630       -2.40819        0.28077
H          8.74796        1.42250       -1.67660
H          6.33059        1.72987       -1.29972
