41
COMP66_000001.log	Energy: -671128.0474835
C          2.24800        0.33292       -0.01953
C          0.83740       -0.03628       -0.01989
C         -0.17623        0.93802        0.00268
C         -1.49999        0.54603        0.00090
C         -2.74675        1.41858        0.02198
C         -2.80765        2.27623        1.29670
C         -2.82161        2.31217       -1.22764
C         -3.84241        0.36221        0.01138
C         -5.21723        0.54239        0.02516
C         -6.04563       -0.58007        0.01156
H         -7.12403       -0.45250        0.02321
C         -5.50255       -1.86548       -0.01628
C         -4.12286       -2.05108       -0.03018
C         -3.29922       -0.92976       -0.01574
C         -1.83683       -0.81556       -0.02214
C         -0.84316       -1.78870       -0.04268
C          0.48926       -1.39833       -0.04127
C          3.38067       -0.44686       -0.00483
C          3.84952       -1.82803        0.02643
O          3.28698       -2.91047        0.03253
N          5.25764       -1.67670        0.04771
H          5.87403       -2.47382        0.06546
C          5.64784       -0.35294        0.02940
H          6.69396       -0.07993        0.04336
C          4.53201        0.41568       -0.00388
C          4.07525        1.80439       -0.02484
O          4.65115        2.87051       -0.03718
N          2.66653        1.65627       -0.03120
H          2.06575        2.46368       -0.06464
H          0.06093        1.99863        0.02719
H         -1.98051        2.99453        1.31947
H         -2.74716        1.65117        2.19258
H         -3.74520        2.84163        1.33379
H         -1.99479        3.03112       -1.23872
H         -3.75975        2.87769       -1.23862
H         -2.77043        1.71268       -2.14140
H         -5.64887        1.53985        0.04738
H         -6.16283       -2.72748       -0.02659
H         -3.70079       -3.05186       -0.05184
H         -1.09474       -2.84504       -0.05915
H          1.27322       -2.15088       -0.05354
