44
COMP51_200430.log	Energy: -2410638.6925903
C          2.06287       -0.49905       -0.30587
C          0.63453       -0.27700       -0.15893
C         -0.08867        0.86313       -0.32641
Cl         0.64054        2.31487       -0.92517
C         -1.51584        0.69803       -0.13772
C         -2.55472        1.63703       -0.18402
C         -2.36339        3.12031       -0.15227
O         -2.98727        3.89694       -0.83806
O         -1.50461        3.47664        0.80171
C         -1.24816        4.87904        0.90455
C         -3.86551        1.16120       -0.17006
S         -5.29677        2.14791       -0.35955
C         -6.30570        0.75187       -0.18344
H         -7.37883        0.84469       -0.27944
C         -5.61989       -0.39624        0.00564
Cl        -6.42004       -1.93134        0.05426
C         -4.18431       -0.20451        0.04817
C         -3.14285       -1.12054        0.25108
C         -3.37420       -2.50531        0.77845
O         -3.99600       -2.74969        1.78017
O         -2.73714       -3.42295        0.03929
C         -2.82624       -4.76616        0.52554
C         -1.83630       -0.66456        0.08947
S         -0.39611       -1.64973        0.21742
C          2.68568       -1.50675       -1.01769
O          2.10601       -2.45874       -1.76442
N          4.04093       -1.53109       -0.96362
C          4.48020       -0.55714       -0.21427
S          3.27700        0.46980        0.48054
C          5.89383       -0.32196        0.03184
S          7.10709       -1.34487       -0.66189
C          8.30138       -0.37637        0.11836
H          9.35662       -0.58550        0.01540
C          7.69426        0.62633        0.82776
O          8.28023        1.58743        1.56864
N          6.33504        0.65324        0.77674
H         -0.52459        4.98264        1.71153
H         -2.16990        5.41689        1.13671
H         -0.83412        5.25765       -0.03311
H         -2.25611       -5.36914       -0.17946
H         -3.86988       -5.08648        0.55438
H         -2.39873       -4.83783        1.52811
H          1.14702       -2.32766       -1.77733
H          9.23724        1.47483        1.53284
