29
COMP22_400100.log	Energy: -1374786.9411041
C          1.76454        0.34422        0.12610
C          0.41040       -0.20125        0.21859
C         -0.03575       -1.45087        0.63365
O          0.67824       -2.49480        1.07920
C         -1.45309       -1.57883        0.61135
H         -1.94930       -2.48401        0.93995
C         -2.09213       -0.45827        0.16661
S         -0.96708        0.79065       -0.23398
C         -3.52090       -0.23961        0.00314
S         -4.59257       -1.57821       -0.27812
C         -5.96754       -0.53275       -0.33531
H         -6.95753       -0.93756       -0.49580
C         -5.60550        0.77327       -0.16178
O         -6.41899        1.85909       -0.15068
C         -4.20407        0.94491        0.03363
H         -3.74718        1.91092        0.21269
C          2.94579       -0.46248       -0.08636
N          2.97020       -1.78919       -0.18476
S          4.51860       -2.24238       -0.43292
N          5.22145       -0.77976       -0.43073
C          4.26109        0.11987       -0.23092
C          4.45702        1.52595       -0.16003
H          5.43469        1.97477       -0.27434
C          3.34142        2.26372        0.05232
F          3.40101        3.58918        0.14199
C          2.03704        1.68977        0.19720
F          1.06329        2.58157        0.39026
H          1.58208       -2.45357        0.70631
H         -7.33007        1.57435       -0.28761
