23
COMP24_000100.log	Energy: -1231855.1014470
C          0.87321       -0.39317       -0.00031
C         -0.58637       -0.28886        0.00017
C         -1.32691        0.86870       -0.00253
H         -0.87937        1.85153       -0.00630
C         -2.71844        0.60535        0.00108
S         -4.14753        1.58786       -0.00589
C         -5.14899        0.16660       -0.00175
H         -6.22488        0.27787       -0.00323
C         -4.44302       -0.99731        0.00382
H         -4.89950       -1.97899        0.00851
C         -3.04065       -0.73979        0.00563
S         -1.62207       -1.72155        0.00550
C          1.74091        0.76769        0.00082
N          1.35031        2.03906        0.00282
S          2.69316        2.95686        0.00221
N          3.82832        1.79222        0.00150
C          3.18094        0.63011       -0.00013
C          3.80526       -0.64894       -0.00168
H          4.88185       -0.75811       -0.00214
C          2.97284       -1.71547       -0.00261
F          3.44275       -2.96047       -0.00358
C          1.54642       -1.58732       -0.00224
F          0.88652       -2.74927       -0.00285
