44
COMP51_000430.log	Energy: -1833874.0087841
C          1.77951       -0.56427        0.23262
C          0.33814       -0.41997        0.14444
C         -0.38765        0.72348        0.21297
H          0.04426        1.69992        0.37357
C         -1.80586        0.50602        0.09104
C         -2.83629        1.46682        0.11990
C         -2.48459        2.90804        0.29041
O         -1.37509        3.34489        0.50133
O         -3.55666        3.70269        0.18574
C         -3.31694        5.09999        0.35407
C         -4.15810        1.01743       -0.00632
S         -5.61606        1.98844        0.00165
C         -6.59898        0.57135       -0.18080
H         -7.67478        0.67964       -0.23195
C         -5.89962       -0.57948       -0.25340
H         -6.34165       -1.55577       -0.37401
C         -4.47568       -0.36245       -0.15532
C         -3.44401       -1.32302       -0.18685
C         -3.78935       -2.76585       -0.35893
O         -4.90049       -3.21328       -0.53191
O         -2.70458       -3.55049       -0.30411
C         -2.93395       -4.94888       -0.48060
C         -2.12583       -0.87154       -0.06239
S         -0.66608       -1.84116       -0.10139
C          2.51710       -1.58718        0.79692
O          2.05373       -2.69758        1.39665
N          3.86661       -1.45268        0.74843
C          4.19010       -0.33388        0.15972
S          2.86973        0.64199       -0.38351
C          5.56614        0.08908       -0.03991
S          6.89127       -0.88740        0.50010
C          7.96547        0.31217       -0.11712
H          9.03803        0.20483       -0.04056
C          7.24538        1.33706       -0.67185
O          7.71613        2.45721       -1.25583
N          5.89189        1.20734       -0.62680
H         -4.28967        5.57617        0.24041
H         -2.61878        5.45861       -0.40538
H         -2.90188        5.29665        1.34498
H         -1.95464       -5.41697       -0.39257
H         -3.36708       -5.13954       -1.46489
H         -3.61293       -5.32131        0.28939
H          1.09355       -2.63551        1.50465
H          8.67998        2.44397       -1.23104
