39
COMP47_310003.log	Energy: -1647310.3993026
C         -2.38787       -1.63522       -0.03528
C         -0.94102       -1.56558       -0.02590
C         -0.06810       -2.62096        0.02602
F         -0.46394       -3.88973        0.07137
C          1.30719       -2.28150        0.02722
C          2.33127       -3.26843        0.07456
N          3.17073       -4.06764        0.11539
C          1.48887       -0.90709       -0.02631
S         -0.02969       -0.08230       -0.07742
C          2.69126       -0.09532       -0.04608
C          3.94932       -0.56755        0.05779
C          5.15930        0.23327        0.03828
C          5.36588        1.59737       -0.09694
C          4.35181        2.58190       -0.26184
N          3.52134        3.38049       -0.39545
C          6.75183        1.93342       -0.05445
F          7.15831        3.19127       -0.16668
C          7.58203        0.87127        0.10683
H          8.65997        0.88014        0.16784
S          6.67534       -0.58506        0.21123
C         -3.32980       -0.63726       -0.04062
C         -3.33919        0.83913       -0.04904
O         -2.41248        1.60799       -0.10127
N         -4.71799        1.19320       -0.03382
C         -5.21695        2.52222       -0.08132
O         -6.19074        2.84098       -0.70538
O         -4.46421        3.31638        0.66835
C         -4.82134        4.70071        0.62572
C         -5.58825        0.05703       -0.04166
O         -6.78647        0.08445       -0.00681
C         -4.66559       -1.10077       -0.04669
C         -4.78307       -2.45132       -0.04417
H         -5.67790       -3.05842       -0.04730
S         -3.21988       -3.18065       -0.03581
H          2.52071        0.97203       -0.15188
H          4.11484       -1.63472        0.17132
H         -4.07691        5.20746        1.23743
H         -5.82345        4.84507        1.03531
H         -4.79165        5.07006       -0.40164
