35
COMP21_100100.log	Energy: -1502073.0497711
C          2.40422        0.44851       -0.15099
C          0.94055        0.40402       -0.11403
C          0.15393       -0.60732       -0.54990
F          0.66229       -1.68824       -1.14685
C         -1.26413       -0.43046       -0.35547
C         -2.33124       -1.27802       -0.68645
C         -2.18385       -2.62509       -1.34227
C         -3.59661       -0.79770       -0.36007
S         -5.08566       -1.67375       -0.66935
C         -6.02703       -0.38588        0.02320
H         -7.10425       -0.44653        0.07822
C         -5.25671        0.63016        0.45505
F         -5.77279        1.72725        1.02454
C         -3.83456        0.45383        0.26214
C         -2.76735        1.30028        0.59249
C         -2.91590        2.64660        1.24971
C         -1.50161        0.81942        0.26798
S         -0.01889        1.69737        0.57941
C          3.20149       -0.62977        0.36984
N          2.73088       -1.73570        0.93883
S          4.02567       -2.62624        1.35865
N          5.22719       -1.65213        0.85009
C          4.64166       -0.57952        0.32120
C          5.31473        0.54774       -0.23304
H          6.39527        0.60084       -0.27311
C          4.53583        1.55387       -0.69872
F          5.06849        2.65123       -1.23187
C          3.10199        1.50538       -0.66093
F          2.47260        2.56339       -1.16684
H         -1.14411       -2.87600       -1.53822
H         -2.72797       -2.64875       -2.29420
H         -2.60999       -3.40766       -0.70299
H         -3.95515        2.88499        1.46419
H         -2.51021        3.43410        0.60293
H         -2.35568        2.67672        2.19210
