30
COMP52_410100.log	Energy: -1749144.8072527
C         -1.01820       -0.07911        0.39061
C          0.37640        0.31855        0.35076
C          0.88848        1.56869        0.59067
O          0.23017        2.69193        0.94315
C          2.29979        1.59985        0.42826
F          2.99497        2.72209        0.62405
C          2.86926        0.40833        0.07947
S          1.63757       -0.81272       -0.06722
C          4.27393        0.12881       -0.13450
S          5.52015        1.33245        0.05099
C          6.76036        0.20017       -0.36645
H          7.79450        0.51504       -0.39154
C          6.25748       -1.03720       -0.63547
O          6.90847       -2.16736       -0.99380
C          4.83906       -1.05990       -0.49882
F          4.13724       -2.17421       -0.71601
C         -1.59190       -1.16152        1.00603
F         -0.90346       -2.04562        1.70825
N         -2.92352       -1.33396        0.89015
C         -3.43006       -0.36955        0.16997
S         -2.28986        0.78843       -0.43320
C         -4.84800       -0.24846       -0.11872
S         -5.99202       -1.40834        0.47365
C         -7.24160       -0.51556       -0.30309
H         -8.28021       -0.80647       -0.26662
C         -6.68930        0.56138       -0.92857
F         -7.37998        1.45376       -1.61917
N         -5.35076        0.72241       -0.83394
H         -0.68470        2.47401        1.16730
H          7.85457       -1.98634       -1.03993
