46
COMP84_100000.log	Energy: -1367048.7682591
C         -1.68382       -0.06547        0.02521
C         -3.14849       -0.13692       -0.00391
C         -4.05749        0.79144        0.42161
F         -3.73406        1.96729        0.96753
C         -5.41032        0.39887        0.25101
S         -6.95658        1.10237        0.58295
C         -7.75517       -0.30722       -0.05653
H         -8.83316       -0.37156       -0.07888
C         -6.87275       -1.24378       -0.48950
F         -7.21591       -2.41465       -1.02283
C         -5.51562       -0.85223       -0.31770
S         -3.97106       -1.55030       -0.65209
C         -0.91038       -1.23073        0.07164
C          0.48074       -1.18805        0.09023
C          1.14020        0.04032        0.07452
C          2.54829        0.47798        0.02151
C          2.47470        1.99514       -0.07010
O          3.37046        2.81777       -0.10796
N          1.14163        2.33308       -0.05026
C          0.66226        3.69179       -0.10022
C          0.34087        1.20114        0.01253
C         -1.03898        1.18089       -0.01079
C          3.72433       -0.21029        0.06538
C          3.80595       -1.68580        0.43023
O          2.91927       -2.46293        0.73410
N          5.13620       -2.02749        0.41741
C          5.62147       -3.34775        0.73116
C          5.92706       -0.94476        0.05083
C          7.30081       -0.94864       -0.11362
C          7.90616        0.23910       -0.52386
H          8.98302        0.26948       -0.66089
C          7.14225        1.37607       -0.76435
C          5.75823        1.36487       -0.58862
C          5.12528        0.19650       -0.16244
H         -1.39825       -2.19963        0.11866
H          1.04585       -2.10525        0.14099
H          1.53351        4.34740       -0.11385
H          0.05058        3.91571        0.78000
H          0.06625        3.85923       -1.00390
H         -1.60648        2.10111       -0.07111
H          4.75960       -3.95650        1.00651
H          6.32494       -3.30961        1.56951
H          6.12092       -3.79345       -0.13602
H          7.88381       -1.84638        0.06390
H          7.62464        2.29192       -1.09005
H          5.18054        2.25831       -0.76547
