34
COMP57_210300.log	Energy: -2271322.1360758
C         -1.94024       -0.28219        0.00081
C         -0.59752        0.25078       -0.01051
C         -0.24150        1.57485       -0.04224
F         -1.12701        2.56453       -0.06838
C          1.15143        1.81677       -0.04549
Cl         1.80024        3.41183       -0.08678
C          1.88950        0.65710       -0.01655
S          0.84452       -0.73043        0.01890
C          3.33387        0.55382       -0.01379
C          4.01340       -0.60808       -0.02994
C          5.45323       -0.78440       -0.02559
C          6.50825        0.09631        0.04761
Cl         6.41187        1.81371        0.17267
C          7.77458       -0.55443        0.01786
F          8.90994        0.12992        0.07963
C          7.69989       -1.90706       -0.07583
H          8.51764       -2.61103       -0.11368
S          6.05996       -2.41473       -0.12933
C         -2.37282       -1.59908        0.02073
C         -1.51560       -2.74353        0.03282
N         -0.80917       -3.66281        0.04253
N         -3.72603       -1.79657        0.02756
C         -4.34649       -0.65603        0.01333
S         -3.33460        0.75423       -0.00974
C         -5.79629       -0.53785        0.01534
S         -6.81378       -1.95005        0.03688
C         -8.17827       -0.91491        0.02642
H         -9.18982       -1.29540        0.03442
C         -7.77562        0.39397        0.00767
C         -8.67733        1.50800       -0.00493
N         -9.42809        2.38970       -0.01470
N         -6.41993        0.60303        0.00150
H          3.85677        1.50277       -0.00066
H          3.45319       -1.54261       -0.05337
