39
COMP47_130003.log	Energy: -1647307.4832096
C         -2.48868       -1.52698       -0.06399
C         -1.03629       -1.56627       -0.01689
C         -0.20638       -2.67585        0.09158
C         -0.60751       -4.03867        0.19898
N         -0.90235       -5.15666        0.28689
C          1.16662       -2.32185        0.09399
F          2.11184       -3.25497        0.19212
C          1.41907       -0.98130       -0.00876
S         -0.08356       -0.12085       -0.10813
C          2.67173       -0.24974       -0.03784
C          3.89006       -0.81635        0.05266
C          5.14501       -0.08761        0.02313
C          5.39931        1.25358       -0.08679
F          4.45137        2.18174       -0.19475
C          6.78039        1.60625       -0.07714
C          7.26063        2.94569       -0.18133
N          7.65131        4.03310       -0.26611
C          7.57889        0.49795        0.04363
H          8.65874        0.47389        0.07771
S          6.65909       -0.93939        0.14169
C         -3.35084       -0.45314       -0.07110
C         -3.26016        1.02545       -0.04304
O         -2.28680        1.73524       -0.05943
N         -4.60909        1.47471       -0.04925
C         -5.01045        2.83788       -0.07533
O         -5.93143        3.24202       -0.72904
O         -4.23871        3.55409        0.73093
C         -4.50326        4.96000        0.72551
C         -5.55615        0.40627       -0.11264
O         -6.74995        0.51691       -0.10971
C         -4.71648       -0.81199       -0.12553
C         -4.93834       -2.14966       -0.16195
H         -5.87763       -2.68377       -0.20461
S         -3.44337       -2.99869       -0.12921
H          2.58693        0.82712       -0.14240
H          3.97265       -1.89331        0.15808
H         -3.77483        5.39015        1.41073
H         -5.52155        5.15426        1.06881
H         -4.37451        5.36745       -0.27963
