33
COMP47_420001.log	Energy: -1935291.2747068
C          3.33470        0.38144        0.02510
C          1.95617        0.82795       -0.08029
C          1.44056        2.10106       -0.20813
Cl         2.34226        3.58303       -0.29457
C          0.02237        2.16129       -0.27474
O         -0.70520        3.28979       -0.39754
C         -0.55888        0.91909       -0.20085
S          0.64273       -0.31883       -0.04114
C         -1.98181        0.66006       -0.25499
C         -2.56025       -0.55820       -0.27339
C         -3.99471       -0.78355       -0.25805
C         -4.96637       -0.03002        0.36051
O         -4.78348        1.07845        1.10613
C         -6.27794       -0.56709        0.17353
Cl        -7.68615        0.17924        0.84210
C         -6.29108       -1.71029       -0.56259
H         -7.15325       -2.29795       -0.84264
S         -4.70536       -2.16866       -1.04348
C          3.85155       -0.89292        0.10716
C          3.35893       -2.29818        0.11770
O          2.23777       -2.74637        0.05792
N          4.51803       -3.07596        0.21820
H          4.48515       -4.08504        0.24928
C          5.71359       -2.35207        0.28081
O          6.82145       -2.81908        0.37265
C          5.26712       -0.93693        0.20733
C          5.86402        0.27800        0.20725
H          6.91567        0.52118        0.27104
S          4.67647        1.51894        0.07945
H         -0.11256        4.05309       -0.44250
H         -2.59422        1.55651       -0.33106
H         -1.93148       -1.44870       -0.29382
H         -3.84298        1.15091        1.32530
