52
COMP97_030000.log	Energy: -1500478.7737937
C          1.23558       -0.02673        0.03890
C         -0.20335        0.21305        0.27116
C         -0.78651        0.90990        1.30570
C         -0.01639        1.62914        2.26986
N          0.62821        2.21372        3.03600
C         -2.20889        0.87718        1.28049
H         -2.82711        1.40477        1.99631
C         -2.70434        0.14193        0.23672
S         -1.40771       -0.49980       -0.72806
C         -4.08737       -0.14057       -0.11922
C         -5.11382       -0.05976        0.74292
C         -6.50615       -0.27251        0.37215
C         -7.09133       -0.23020       -0.86540
H         -6.56440        0.02065       -1.77768
C         -8.48874       -0.51872       -0.82412
C         -9.33230       -0.53619       -1.97897
N        -10.00948       -0.55007       -2.91957
C         -8.94778       -0.76423        0.44527
H         -9.96045       -0.99651        0.74318
S         -7.68613       -0.65314        1.59474
C          1.67834       -1.37047        0.11382
C          3.00701       -1.69326        0.00149
C          3.42236       -3.12127        0.08479
O          2.61260       -4.01565        0.22630
N          4.79207       -3.37621       -0.00969
C          5.25265       -4.76182        0.06323
C          5.78446       -2.40680       -0.17457
O          6.95290       -2.72934       -0.25326
C          5.34248       -0.98887       -0.24729
C          6.27458        0.01258       -0.39235
H          7.32533       -0.24959       -0.45117
C          5.85953        1.35585       -0.45688
C          4.52283        1.67980       -0.39142
C          4.12532        3.11083       -0.45413
O          4.94493        4.00445       -0.52563
N          2.75508        3.36879       -0.44461
C          2.30558        4.75449       -0.57166
C          1.74906        2.40308       -0.41935
O          0.59486        2.73214       -0.60233
C          2.16354        0.98619       -0.17838
C          3.54321        0.66812       -0.24981
C          3.96778       -0.67552       -0.16561
H         -4.27552       -0.44151       -1.14773
H         -4.91559        0.16562        1.78875
H          0.96022       -2.16673        0.28122
H          4.38517       -5.39332        0.23911
H          5.97405       -4.86472        0.87562
H          5.74099       -5.03863       -0.87335
H          6.58396        2.15677       -0.55597
H          3.17866        5.39603       -0.48027
H          1.58329        4.97132        0.21651
H          1.82514        4.90508       -1.54090
