30
COMP52_210400.log	Energy: -2201422.9702743
C         -1.28811        0.05111        0.42094
C          0.09300        0.48611        0.29920
C          0.62393        1.74707        0.34872
Cl        -0.27080        3.19450        0.60777
C          2.03535        1.75448        0.18900
F          2.73936        2.88394        0.22171
C          2.60483        0.52339        0.02671
S          1.35555       -0.69001        0.02993
C          4.00940        0.20663       -0.13082
S          5.26622        1.41388       -0.11775
C          6.49782        0.23480       -0.35252
H          7.53621        0.52601       -0.41784
C          5.98523       -1.02187       -0.43816
Cl         6.90257       -2.46242       -0.67366
C          4.56914       -1.02780       -0.31109
F          3.85697       -2.15170       -0.36613
C         -1.79566       -0.87604        1.30791
O         -1.12540       -1.53468        2.26617
N         -3.12141       -1.14519        1.20332
C         -3.65013       -0.43813        0.24224
S         -2.57392        0.61330       -0.60928
C         -5.05960       -0.50643       -0.10959
S         -6.14704       -1.55032        0.74408
C         -7.41302       -0.99327       -0.28511
H         -8.42546       -1.35794       -0.18515
C         -6.91801       -0.07773       -1.17623
O         -7.58718        0.58427       -2.14036
N         -5.58873        0.19385       -1.07367
H         -0.21130       -1.21979        2.29422
H         -8.51303        0.31532       -2.12390
