34
COMP57_040200.log	Energy: -2125472.2938162
C          1.29716        0.50533        0.34304
C         -0.11061        0.19894        0.52511
C         -0.65614       -0.68486        1.43165
O          0.01250       -1.39586        2.36615
C         -2.06689       -0.80139        1.33451
H         -2.64900       -1.42085        2.00507
C         -2.59668       -0.01444        0.34503
S         -1.36138        0.88979       -0.47146
C         -3.98469        0.14142       -0.06169
C         -4.95840       -0.73523        0.23812
C         -6.35927       -0.57121       -0.11154
C         -7.02458        0.53919       -0.56911
H         -6.55168        1.50633       -0.70697
C         -8.40621        0.29383       -0.81483
O         -9.29390        1.21625       -1.26815
C         -8.77969       -0.99168       -0.53610
H         -9.76489       -1.42230       -0.63567
S         -7.44338       -1.91856        0.02662
C          1.95495        1.71232        0.32881
Cl         1.18373        3.23645        0.57769
N          3.29546        1.69263        0.12055
C          3.70983        0.46521       -0.02559
S          2.47710       -0.74886        0.05064
C          5.10577        0.11766       -0.23546
S          6.33554        1.33782       -0.33335
C          7.49575        0.09037       -0.56640
H          8.54731        0.29518       -0.70145
C          6.86964       -1.12077       -0.55073
Cl         7.68080       -2.63286       -0.75114
N          5.52286       -1.11142       -0.36535
H          0.93591       -1.11141        2.39594
H         -4.22055        1.02360       -0.65339
H         -4.70031       -1.64768        0.77247
H         -8.83660        2.05316       -1.40591
