23
COMP14_300000.log	Energy: -1200889.1569478
C          1.87890        0.34856       -0.25409
C          0.43518        0.30265       -0.17464
C         -0.42112        1.37824       -0.01441
C          0.00733        2.73148        0.10161
N          0.35073        3.83670        0.17781
C         -1.78251        0.96053        0.02939
S         -3.30516        1.76367        0.20974
C         -4.13737        0.25417        0.12097
H         -5.21603        0.22485        0.19279
C         -3.30404       -0.82118       -0.03854
C         -3.75571       -2.17123       -0.13962
N         -4.11072       -3.27109       -0.22484
C         -1.93495       -0.40526       -0.08941
S         -0.42280       -1.21497       -0.27355
C          2.69999        1.32227       -0.67666
C          4.13512        0.99118       -0.58190
C          4.39979       -0.22478       -0.10411
H          5.34836       -0.71610        0.06206
S          2.87914       -1.05669        0.29874
O          2.75772       -1.22527        1.73884
O          2.64055       -2.18867       -0.58803
H          2.36316        2.27377       -1.07042
H          4.89567        1.69779       -0.89224
