40
COMP92_000001.log	Energy: -1286880.9657511
C          0.25229       -0.27375        0.41012
C         -1.21254       -0.32958        0.59073
C         -1.87735       -0.94019        1.61796
H         -1.37034       -1.37129        2.47384
C         -3.28828       -0.91619        1.46181
H         -3.98508       -1.31196        2.19174
C         -3.68878       -0.31357        0.29813
S         -2.31963        0.23207       -0.61770
C         -5.03981       -0.12098       -0.20942
S         -6.29601       -1.26820        0.15094
C         -7.45643       -0.36131       -0.74330
H         -8.47998       -0.70373       -0.80888
C         -6.90513        0.75391       -1.30017
H         -7.46532        1.45974       -1.90169
C         -5.52187        0.89377       -0.99434
H         -4.90956        1.72717       -1.32024
C          0.90652       -1.52837        0.30336
C          2.25510       -1.62330        0.08422
C          2.88564       -2.96685       -0.02783
O          2.27881       -4.00991        0.09045
N          4.25115       -2.95626       -0.28270
H          4.69255       -3.86510       -0.36392
C          5.08969       -1.85921       -0.44166
O          6.27309       -2.00579       -0.66269
C          4.43049       -0.53096       -0.31663
C          5.18258        0.61261       -0.45414
H          6.24514        0.52262       -0.65219
C          4.56893        1.87059       -0.33426
C          3.21970        1.96911       -0.07902
C          2.61567        3.31880        0.05423
O          3.23249        4.35554       -0.07792
N          1.26384        3.31903        0.35186
H          0.84171        4.22905        0.49755
C          0.41121        2.23669        0.55403
O         -0.72671        2.43498        0.91954
C          1.01155        0.88837        0.31754
C          2.41318        0.80860        0.06309
C          3.03933       -0.45355       -0.05910
H          0.32175       -2.43908        0.37929
H          5.14288        2.78507       -0.43846
