29
COMP43_000013.log	Energy: -811028.6768600
C          1.46180        0.75332       -0.03553
C          2.56295       -0.21971       -0.02378
C          2.40291       -1.47890       -0.61559
C          3.44959       -2.39257       -0.60716
H          3.31031       -3.36554       -1.06780
C          4.66693       -2.06612       -0.01659
H          5.48089       -2.78456       -0.01242
C          4.83399       -0.81678        0.57470
C          3.79014        0.09900        0.57374
H          3.92561        1.06075        1.06097
C          0.09999        0.58738       -0.07225
C         -0.86705       -0.53583       -0.09908
O         -0.68554       -1.72166       -0.20314
N         -2.14958        0.09141       -0.04053
C         -3.38772       -0.59726       -0.09881
O         -4.33584       -0.20809       -0.72399
O         -3.33452       -1.69675        0.64345
C         -4.50170       -2.51906        0.58237
C         -2.07950        1.51766       -0.02619
O         -3.01170        2.27129        0.03557
C         -0.62947        1.80322       -0.04441
C          0.14023        2.91836       -0.00001
H         -0.16303        3.95556        0.03035
S          1.80536        2.46932        0.00025
H          1.45482       -1.74479       -1.06702
H          5.77636       -0.55686        1.04667
H         -4.26519       -3.39805        1.17988
H         -4.71415       -2.80132       -0.45120
H         -5.36203       -1.98887        0.99683
