30
COMP74_300001.log	Energy: -1594237.2073489
C          0.21617        1.21243       -0.48270
C         -1.13269        0.69238       -0.24360
C         -1.93361        0.95933        0.84227
C         -1.53557        1.79179        1.92975
N         -1.22680        2.47105        2.81680
C         -3.18660        0.28011        0.74497
S         -4.60305        0.17267        1.73295
C         -5.34992       -0.88351        0.59098
H         -6.34377       -1.26771        0.77547
C         -4.56554       -1.14890       -0.50057
C         -4.95967       -1.98975       -1.58397
N         -5.26409       -2.66749       -2.47356
C         -3.30784       -0.47098       -0.40507
S         -1.89542       -0.36589       -1.39225
C          1.42181        0.57955       -0.30486
C          1.59542       -0.80379        0.21883
O          0.66125       -1.51922        0.53016
C          3.00835       -1.23193        0.33134
C          3.40518       -2.45898        0.78130
H          2.76647       -3.26734        1.11008
S          5.11620       -2.60524        0.77510
C          5.32085       -1.01291        0.16332
H          6.30126       -0.59788       -0.02625
C          4.11872       -0.39452       -0.02631
C          3.95129        0.98407       -0.53866
O          4.88351        1.70218       -0.84769
C          2.53446        1.41792       -0.64505
C          2.14989        2.65797       -1.06814
H          2.80226        3.46548       -1.37226
S          0.44775        2.82954       -1.06408
