46
COMP72_130003.log	Energy: -2053186.0355149
C         -0.25226       -1.77075       -0.47648
C         -1.52022       -1.07029       -0.62770
C         -1.84806       -0.12267       -1.55160
F         -1.03438        0.29538       -2.50196
C         -3.16955        0.38948       -1.43000
C         -3.66922        1.40122       -2.30084
N         -4.06141        2.21725       -3.02469
C         -3.86067       -0.20054       -0.38518
S         -2.86953       -1.36187        0.42314
C         -5.23480        0.03567        0.03128
S         -6.45738        0.46842       -1.11482
C         -7.68262        0.52441        0.08869
H         -8.70252        0.78383       -0.15332
C         -7.17198        0.21985        1.30821
F         -7.87647        0.18760        2.43114
C         -5.77450       -0.06601        1.30202
C         -5.06337       -0.39040        2.49362
N         -4.50768       -0.66303        3.47378
C          1.01334       -1.25510       -0.31209
C          1.35501        0.18488       -0.19018
O          0.54907        1.07624       -0.36258
C          2.79251        0.45667        0.10300
C          3.31973        1.70613        0.32328
C          2.61107        2.99515        0.59094
O          1.68924        3.12175        1.35213
O          3.19666        3.99465       -0.07988
C          2.63777        5.29112        0.15443
S          5.03595        1.65847        0.40743
C          5.07122       -0.04475        0.16591
C          6.38805       -0.73338        0.02251
O          6.64095       -1.56731       -0.80568
O          7.26717       -0.23779        0.90457
C          8.58696       -0.78213        0.81697
C          3.80354       -0.55912        0.03849
C          3.45357       -2.00674       -0.00755
O          4.25867       -2.89771        0.16856
C          2.00995       -2.27856       -0.21098
C          1.49073       -3.53851       -0.28556
H          2.04022       -4.46798       -0.22339
S         -0.20619       -3.50769       -0.49955
H          3.22850        5.97521       -0.45270
H          2.71032        5.54966        1.21342
H          1.58910        5.31000       -0.14981
H          9.16288       -0.27289        1.58818
H          9.01277       -0.59500       -0.17161
H          8.56297       -1.85865        0.99961
