48
COMP87_100001.log	Energy: -1414840.3725251
C          0.10048        0.47369       -0.15585
C         -1.35726        0.62297       -0.21330
C         -2.07228        1.70553       -0.65505
H         -1.63400        2.60902       -1.06031
C         -3.46529        1.49009       -0.57074
F         -4.33764        2.42750       -0.96575
C         -3.85119        0.27017       -0.07426
S         -2.42197       -0.64363        0.31179
C         -5.16616       -0.29781        0.15288
C         -6.33012        0.31409       -0.14111
C         -7.64769       -0.25078        0.08344
C         -8.03846       -1.44686        0.63075
F         -7.17019       -2.36157        1.08350
C         -9.43723       -1.66625        0.69204
H         -9.88490       -2.56376        1.09893
C        -10.12484       -0.60805        0.17758
H        -11.19591       -0.49297        0.09048
S         -9.07305        0.63778       -0.37422
C          0.71212       -0.77630       -0.30245
C          2.09536       -0.92281       -0.27055
C          2.91150        0.19669       -0.09968
C          4.36359        0.42175        0.04231
C          4.49790        1.90957        0.34228
O          5.48537        2.58791        0.54135
N          3.22441        2.42340        0.30191
H          3.04363        3.39946        0.47519
C          2.27116        1.44270        0.07337
C          0.90163        1.60686        0.04841
C          5.43554       -0.40917       -0.10033
C          5.32444       -1.80888       -0.69441
O          4.35161       -2.42083       -1.08903
N          6.60537       -2.29415       -0.76734
H          6.80208       -3.21227       -1.13294
C          7.53402       -1.40496       -0.24295
C          8.89530       -1.60452       -0.10349
C          9.63926       -0.58806        0.49374
H         10.71050       -0.71456        0.61785
C          9.01898        0.57560        0.93824
C          7.64607        0.76354        0.78514
C          6.87606       -0.22797        0.17274
H         -5.18462       -1.29018        0.59195
H         -6.31025        1.30462       -0.58418
H          0.09959       -1.65585       -0.47586
H          2.53678       -1.89769       -0.40450
H          0.45396        2.58120        0.21637
H          9.36322       -2.52374       -0.44151
H          9.60825        1.35519        1.40997
H          7.18097        1.67540        1.12475
