54
COMP71_100023.log	Energy: -2128975.9034284
C          0.20528       -2.16255        0.27663
C         -1.13394       -1.60642        0.21291
C         -1.54568       -0.45506        0.79728
F         -0.76139        0.27702        1.57900
C         -2.89996       -0.07587        0.51605
C         -3.61315        1.06654        0.89925
O         -3.08262        2.06607        1.65052
C         -2.15928        2.91464        0.96039
C         -4.94053        1.14694        0.49508
S         -6.01010        2.48317        0.85236
C         -7.29925        1.71588       -0.03397
H         -8.26844        2.18489       -0.12442
C         -6.93165        0.52829       -0.55542
F         -7.75188       -0.24780       -1.27035
C         -5.57191        0.14156       -0.27570
C         -4.84959       -0.99083       -0.67261
O         -5.37012       -1.97525       -1.45854
C         -6.21163       -2.89611       -0.77101
C         -3.52327       -1.07160       -0.27172
S         -2.43318       -2.37100       -0.69554
C          1.41413       -1.51305        0.14492
C          1.61152       -0.09575       -0.24189
O          0.72855        0.62278       -0.66490
C          3.02690        0.37541       -0.16271
C          3.41852        1.68434       -0.30277
C          2.58126        2.92023       -0.30014
O          1.64362        3.11891        0.42775
O          3.06754        3.81065       -1.17544
C          2.38246        5.06517       -1.20963
S          5.13234        1.82389       -0.36274
C          5.34549        0.12524       -0.18788
C          6.72149       -0.44519       -0.28653
O          7.01830       -1.42438       -0.91735
O          7.59294        0.33534        0.36954
C          8.95980       -0.07539        0.27993
C          4.13905       -0.52294       -0.06821
C          3.94817       -1.96448        0.26309
O          4.86446       -2.71734        0.52359
C          2.53086       -2.39444        0.32751
C          2.15823       -3.68381        0.57137
H          2.81761       -4.52685        0.72631
S          0.45436       -3.85058        0.60991
H         -1.86407        3.67787        1.68040
H         -2.64832        3.38548        0.09972
H         -1.27273        2.36569        0.63397
H         -6.50294       -3.64644       -1.50674
H         -7.10644       -2.39818       -0.38548
H         -5.67038       -3.37723        0.05244
H          2.89634        5.65660       -1.96589
H          2.43526        5.55447       -0.23417
H          1.33530        4.91567       -1.48128
H          9.52431        0.66615        0.84330
H          9.28384       -0.09866       -0.76326
H          9.08438       -1.06857        0.71688
