71
COMP86_000032.log	Energy: -1292637.8607245
C         -0.23938       -0.83929       -0.53692
C         -1.70848       -1.00709       -0.64170
C         -2.56726       -0.00996       -0.16048
C         -3.93199       -0.18736       -0.27785
C         -5.04070        0.74794        0.18345
C         -4.87068        0.97233        1.68865
O         -4.11499        1.79616        2.14624
O         -5.58727        0.11935        2.41811
C         -5.38531        0.20800        3.82999
C         -4.95515        2.11905       -0.49798
O         -4.14866        2.44201       -1.32971
O         -5.92780        2.91955       -0.04208
C         -5.94137        4.23722       -0.59301
C         -6.29352       -0.01550       -0.22967
C         -7.62403        0.33883       -0.07326
C         -8.60638       -0.53663       -0.53518
H         -9.65421       -0.27723       -0.41833
C         -8.25713       -1.74252       -1.14318
C         -6.91967       -2.09777       -1.29964
C         -5.93915       -1.22710       -0.83849
C         -4.47579       -1.33630       -0.85978
C         -3.63272       -2.33259       -1.33795
C         -2.25750       -2.15900       -1.22365
C          0.35354        0.40681       -0.76957
C          1.72942        0.59883       -0.67761
C          2.55806       -0.47263       -0.33765
C          4.01579       -0.67368       -0.19382
C          4.18415       -2.17557        0.00306
O          5.17312       -2.87588        0.03993
N          2.90655       -2.65973        0.19641
O          2.64161       -4.00023        0.10806
C          2.76498       -4.60988        1.39308
C          1.93418       -1.71650       -0.12118
C          0.57640       -1.93043       -0.20739
C          5.05860        0.20162       -0.13022
C          4.86302        1.71165       -0.08390
O          3.88171        2.39947       -0.27820
N          6.09737        2.22153        0.24080
O          6.35461        3.55823        0.30970
C          6.47489        4.12011       -1.00208
C          7.10145        1.26172        0.23252
C          8.45460        1.47440        0.40116
C          9.28608        0.35633        0.32963
H         10.35720        0.48017        0.45736
C          8.75435       -0.90711        0.09207
C          7.38080       -1.09722       -0.06885
C          6.51874       -0.00270        0.01460
H         -2.16934        0.88164        0.31346
H         -6.04125       -0.54510        4.26448
H         -5.64818        1.20470        4.19156
H         -4.34141        0.00100        4.07696
H         -6.77052        4.74919       -0.10611
H         -6.09549        4.19613       -1.67381
H         -4.99758        4.74461       -0.38203
H         -7.89312        1.27743        0.39902
H         -9.03552       -2.41180       -1.49728
H         -6.65092       -3.03769       -1.77309
H         -4.03367       -3.22909       -1.80179
H         -1.59051       -2.92026       -1.61805
H         -0.27282        1.24419       -1.06104
H          2.15522        1.56972       -0.87474
H          2.52712       -5.66172        1.22773
H          2.05570       -4.16895        2.10186
H          3.78813       -4.51204        1.76567
H          0.16321       -2.91374       -0.01275
H          6.72298        5.16900       -0.83564
H          5.52610        4.03964       -1.53863
H          7.27887        3.62680       -1.55963
H          8.83841        2.47199        0.58215
H          9.41454       -1.76602        0.02791
H          6.98405       -2.08259       -0.25520
