50
COMP82_210000.log	Energy: -1992388.6201137
C         -0.37303       -0.60274       -0.17318
C         -1.83003       -0.78573       -0.24292
C         -2.56846       -1.88748       -0.58315
Cl        -1.94805       -3.41740       -1.09275
C         -3.96718       -1.64382       -0.54102
F         -4.85562       -2.58726       -0.85184
C         -4.31934       -0.37694       -0.17256
S         -2.87778        0.54586        0.14227
C         -5.65311        0.17191       -0.03857
S         -7.09543       -0.75445       -0.35255
C         -8.11889        0.57855        0.02082
H         -9.19332        0.48222       -0.03667
C         -7.40346        1.68099        0.36921
Cl        -8.07255        3.20834        0.81028
C         -6.00205        1.44070        0.33257
F         -5.11304        2.38449        0.63831
C          0.21561        0.56481       -0.66860
C          1.58961        0.77836       -0.59013
C          2.41046       -0.18626       -0.00830
C          3.86407       -0.34516        0.19201
C          4.01960       -1.73079        0.79912
O          5.02402       -2.31879        1.15321
N          2.75211       -2.24533        0.94995
C          2.47947       -3.54537        1.51082
C          1.79650       -1.36782        0.45830
C          0.43491       -1.59119        0.40546
C          4.91422        0.49736       -0.02076
C          4.73862        1.97722       -0.33444
O          3.71854        2.62709       -0.47091
N          5.99698        2.52412       -0.39342
C          6.24780        3.91949       -0.65410
C          6.97370        1.55309       -0.20312
C          8.34314        1.74137       -0.25853
C          9.15725        0.62209       -0.08304
H         10.23634        0.73790       -0.12041
C          8.59843       -0.63381        0.12818
C          7.21550       -0.80574        0.18818
C          6.37517        0.29833        0.03755
H         -0.40501        1.31805       -1.14381
H          2.01475        1.69264       -0.97258
H          3.43674       -4.00138        1.76433
H          1.95487       -4.17544        0.78464
H          1.86844       -3.45524        2.41509
H          0.00073       -2.49935        0.80692
H          5.28111        4.41286       -0.75901
H          6.82188        4.04277       -1.57884
H          6.80027        4.37265        0.17566
H          8.76884        2.72299       -0.43840
H          9.24322       -1.49762        0.25328
H          6.79542       -1.78308        0.36506
