34
COMP57_230200.log	Energy: -2723600.6099907
C         -1.93822       -0.21106        0.48203
C         -0.57632        0.30080        0.53359
C         -0.16148        1.56606        0.89422
C         -1.04325        2.58637        1.36103
N         -1.76474        3.41055        1.73949
C          1.25302        1.72994        0.77993
Cl         2.03987        3.20894        1.18800
C          1.90961        0.60688        0.34238
S          0.76733       -0.66651        0.04204
C          3.33822        0.45388        0.14728
C          3.95010       -0.71230       -0.12329
C          5.37165       -0.92390       -0.34359
C          6.42065       -0.07044       -0.58906
Cl         6.30564        1.64527       -0.72627
C          7.67679       -0.73947       -0.75994
C          8.91397       -0.07695       -1.02477
N          9.92436        0.44775       -1.23962
C          7.56142       -2.09849       -0.64367
H          8.35349       -2.82892       -0.72788
S          5.95097       -2.56850       -0.32884
C         -2.45514       -1.38427        0.98033
Cl        -1.55172       -2.55779        1.86663
N         -3.77351       -1.61198        0.77462
C         -4.29902       -0.61877        0.10962
S         -3.21615        0.66050       -0.30970
C         -5.70338       -0.56769       -0.26349
S         -6.80682       -1.82926        0.18203
C         -8.05466       -0.96216       -0.62026
H         -9.07130       -1.32341       -0.66752
C         -7.54414        0.18800       -1.14789
Cl        -8.47347        1.34126       -2.03455
N         -6.21902        0.41416       -0.94962
H          3.90863        1.37003        0.24654
H          3.34976       -1.62008       -0.17518
