25
COMP23_000310.log	Energy: -724120.8163051
C         -0.15452        0.10808       -0.00623
C         -1.63155        0.00834        0.00510
C         -2.38761        0.76236        0.90791
C         -3.77426        0.66922        0.90967
H         -4.35076        1.25821        1.61572
C         -4.41817       -0.17288        0.00853
H         -5.50164       -0.24281        0.00818
C         -3.67096       -0.92946       -0.89066
C         -2.28476       -0.84618       -0.88994
H         -1.70542       -1.44014       -1.58866
C          0.65655       -1.07691        0.04303
N          0.19703       -2.32868        0.10603
S          1.49753       -3.29671        0.15462
N          2.68970       -2.19492        0.10504
C          2.09197       -1.00350        0.04561
C          2.75202        0.25282       -0.00024
H          3.83385        0.30719        0.00446
C          1.97509        1.37568       -0.04742
C          2.61796        2.65946       -0.09638
N          3.16302        3.68085       -0.13313
C          0.52595        1.30754       -0.05718
C         -0.18948        2.54887       -0.15834
N         -0.73912        3.56503       -0.24612
H         -1.89123        1.41576        1.61851
H         -4.16904       -1.58753       -1.59568
