44
COMP82_210001.log	Energy: -1943061.4372441
C          0.10854        0.63284        0.16574
C          1.56534        0.82661        0.19353
C          2.30464        1.94859        0.45826
Cl         1.68761        3.49984        0.90136
C          3.70343        1.70968        0.39526
F          4.59318        2.67265        0.63355
C          4.05460        0.42688        0.08550
S          2.61172       -0.51817       -0.14581
C          5.38804       -0.12188       -0.05208
S          6.83251        0.83115        0.15320
C          7.85355       -0.51831       -0.16288
H          8.92858       -0.41270       -0.14696
C          7.13591       -1.64575       -0.41294
Cl         7.80283       -3.19622       -0.76855
C          5.73457       -1.41093       -0.34798
F          4.84326       -2.37770       -0.56169
C         -0.46038       -0.52344        0.71043
C         -1.83453       -0.74334        0.68433
C         -2.68163        0.20721        0.11352
C         -4.13509        0.30106       -0.14301
C         -4.31089        1.61763       -0.88934
O         -5.31695        2.16864       -1.28837
N         -3.05556        2.16046       -1.01116
H         -2.90735        3.05710       -1.44656
C         -2.08003        1.35573       -0.44454
C         -0.71993        1.58897       -0.43587
C         -5.17661       -0.51660        0.18393
C         -5.03943       -1.69395        1.14500
O         -4.07365       -2.09315        1.76489
N         -6.28782       -2.25037        1.24911
H         -6.46537       -3.04218        1.84651
C         -7.22237       -1.59456        0.45882
C         -8.55639       -1.92163        0.29854
C         -9.31293       -1.14143       -0.57451
H        -10.36444       -1.36989       -0.71992
C         -8.73001       -0.08011       -1.26018
C         -7.38423        0.23807       -1.08549
C         -6.60269       -0.51491       -0.20587
H          0.17745       -1.25875        1.19089
H         -2.24480       -1.63661        1.12759
H         -0.30418        2.47638       -0.89951
H         -8.99417       -2.76057        0.83024
H         -9.32918        0.51756       -1.93927
H         -6.95009        1.07264       -1.61254
