36
COMP72_340001.log	Energy: -1737171.2507816
C          1.08442        1.05043        0.62042
C         -0.18967        0.34140        0.60496
C         -0.47613       -0.88580        1.15760
C          0.43755       -1.72081        1.86034
N          1.10485       -2.45463        2.46218
C         -1.84181       -1.26316        0.99136
O         -2.38200       -2.41529        1.44118
C         -2.59128       -0.32138        0.32828
S         -1.59435        1.04019       -0.10730
C         -3.99878       -0.39656       -0.00303
S         -4.99357       -1.77295        0.40546
C         -6.38037       -1.07225       -0.29956
H         -7.32905       -1.58993       -0.29541
C         -6.11647        0.16245       -0.83267
C         -7.04977        1.01368       -1.49144
N         -7.74007        1.76849       -2.03950
C         -4.74786        0.54805       -0.66070
O         -4.21380        1.71219       -1.08801
C          2.33371        0.63376        0.21553
C          2.65237       -0.65007       -0.47214
O          1.81710       -1.48691       -0.75974
C          4.08694       -0.82305       -0.80012
C          4.60365       -1.94015       -1.39153
H          4.06055       -2.82517       -1.69328
S          6.30120       -1.80245       -1.61437
C          6.33726       -0.23313       -0.91613
H          7.25841        0.32526       -0.82104
C          5.09090        0.16410       -0.52511
C          4.77555        1.46239        0.10683
O          5.60887        2.32122        0.32898
C          3.33904        1.63427        0.44669
C          2.83891        2.77590        1.00128
H          3.39801        3.66573        1.25712
S          1.15369        2.66174        1.27044
H         -1.69681       -2.97372        1.83555
H         -4.88643        2.24629       -1.53384
