54
COMP81_100021.log	Energy: -1557788.9497548
C          0.25383        0.03547        0.09413
C         -1.21347        0.06502        0.09044
C         -2.08172       -0.94788       -0.16268
F         -1.68964       -2.19596       -0.45391
C         -3.47644       -0.60612       -0.11285
C         -4.61370       -1.39017       -0.34194
O         -4.55746       -2.71051       -0.67518
C         -4.33456       -3.58800        0.42388
C         -5.85007       -0.76252       -0.25308
S         -7.39088       -1.55342       -0.49677
C         -8.23345       -0.06269       -0.16917
H         -9.31267       -0.01597       -0.19426
C         -7.39209        0.95620        0.09670
F         -7.80248        2.19824        0.36879
C         -5.99339        0.61101        0.05543
C         -4.85540        1.39410        0.28380
O         -4.90997        2.71357        0.61903
C         -5.14369        3.59397       -0.47634
C         -3.61998        0.76749        0.19056
S         -2.08288        1.55768        0.43103
C          0.98879        1.19342       -0.18810
C          2.37976        1.20189       -0.18049
C          3.08245        0.03282        0.11493
C          4.50742       -0.35528        0.15846
C          4.49189       -1.84730        0.47160
O          5.40790       -2.62877        0.63187
N          3.17101       -2.19645        0.60347
H          2.89289       -3.14161        0.81481
C          2.32013       -1.12539        0.37622
C          0.94093       -1.15345        0.38143
C          5.65724        0.36285        0.00835
C          5.68343        1.88714       -0.03743
O          4.77641        2.69242        0.03735
N          7.00386        2.24347       -0.13625
H          7.28898        3.20920       -0.17209
C          7.84279        1.13922       -0.19751
C          9.21706        1.14341       -0.35251
C          9.86207       -0.08980       -0.42944
H         10.94067       -0.12122       -0.55111
C          9.13448       -1.27388       -0.35986
C          7.74967       -1.26062       -0.19851
C          7.07541       -0.04115       -0.10180
H         -4.37306       -4.59839        0.01522
H         -5.11635       -3.46717        1.18315
H         -3.35231       -3.41404        0.87433
H         -5.10196        4.60305       -0.06500
H         -6.12991        3.42043       -0.91750
H         -4.36790        3.47543       -1.24210
H          0.46822        2.11343       -0.43517
H          2.91236        2.11512       -0.39294
H          0.40723       -2.06961        0.60142
H          9.76844        2.07602       -0.41947
H          9.64735       -2.22762       -0.42885
H          7.20169       -2.18710       -0.13291
