33
COMP22_440400.log	Energy: -1439027.6958285
C         -2.00832        0.39389       -0.19040
C         -0.63961       -0.12492       -0.26920
C         -0.20432       -1.40157       -0.54975
O         -0.89431       -2.51320       -0.90380
C          1.20930       -1.54899       -0.48307
O          1.80150       -2.73961       -0.73608
C          1.87548       -0.40387       -0.14370
S          0.74190        0.90152        0.08055
C          3.30308       -0.22674        0.01146
S          4.43749       -1.53652       -0.23980
C          5.79047       -0.52230        0.13081
H          6.79614       -0.91897        0.10723
C          5.39063        0.74184        0.42753
O          6.12928        1.83790        0.76984
C          3.97593        0.91473        0.36085
O          3.37678        2.10244        0.62283
C         -3.13218       -0.43057        0.17953
N         -3.09034       -1.73294        0.45113
S         -4.60711       -2.21656        0.83251
N         -5.37726       -0.79202        0.67216
C         -4.46873        0.10707        0.31206
C         -4.72666        1.48381        0.07050
H         -5.72836        1.88414        0.18179
C         -3.66121        2.24417       -0.29045
O         -3.71871        3.57579       -0.56280
C         -2.32044        1.71690       -0.42498
O         -1.36112        2.59064       -0.78031
H         -1.75562       -2.50357       -0.43333
H          1.08273       -3.36922       -0.90455
H          7.06450        1.60719        0.79008
H          4.07128        2.73997        0.84024
H         -4.62322        3.89828       -0.47147
H         -1.75859        3.46946       -0.86962
