50
COMP84_400002.log	Energy: -1431199.3300812
C          1.89919       -0.16383       -0.09691
C          3.36076       -0.26110       -0.07345
C          4.21949        0.49873        0.68447
O          3.90261        1.47157        1.56906
C          5.58006        0.13351        0.47729
S          7.09488        0.67886        1.10922
C          7.93606       -0.50027        0.13393
H          9.01514       -0.56306        0.18042
C          7.09711       -1.26382       -0.62445
O          7.41300       -2.26234       -1.48355
C          5.73262       -0.89661       -0.42301
S          4.21894       -1.45239       -1.04413
C          1.08818       -1.30490       -0.15549
C         -0.30146       -1.22369       -0.13827
C         -0.92834        0.02094       -0.04107
C         -2.32610        0.50452       -0.01546
C         -2.21781        2.02037        0.08187
O         -3.06609        2.87240        0.24175
N         -0.87277        2.29610       -0.02336
O         -0.35199        3.51993        0.28997
C         -0.41722        4.39159       -0.84171
C         -0.08915        1.15202       -0.02310
C          1.28789        1.10204       -0.04814
C         -3.52310       -0.14594       -0.03959
C         -3.64735       -1.65665        0.11507
O         -2.80402       -2.52218        0.22971
N         -4.99870       -1.89965        0.18138
O         -5.51608       -3.16090        0.11233
C         -5.59197       -3.73523        1.41936
C         -5.76718       -0.77090       -0.07150
C         -7.13902       -0.71466       -0.21454
C         -7.69768        0.53480       -0.47960
H         -8.77306        0.62434       -0.59957
C         -6.88957        1.66243       -0.59783
C         -5.50521        1.57921       -0.45016
C         -4.91333        0.34490       -0.17519
H          2.94738        1.46027        1.72416
H          8.36992       -2.38130       -1.49651
H          1.55387       -2.28481       -0.18889
H         -0.89409       -2.12479       -0.16819
H          0.06959        5.31112       -0.51438
H         -1.45893        4.59096       -1.10598
H          0.12055        3.96065       -1.69265
H          1.86534        2.01989       -0.08542
H         -6.05271       -4.71261        1.26966
H         -6.21743       -3.11954        2.07466
H         -4.59122       -3.85233        1.84336
H         -7.73848       -1.61446       -0.13814
H         -7.33938        2.62779       -0.80538
H         -4.89792        2.46669       -0.53428
