45
COMP65_000002.log	Energy: -800135.9154518
C         -1.42686        0.58630        0.08532
C         -0.04672        0.11703        0.15000
C          1.01894        0.91056       -0.29436
C          2.30123        0.38221       -0.21864
N          3.50700        0.95381       -0.59202
C          3.71250        2.25711       -1.17369
C          4.52014        0.05270       -0.32626
C          5.89285        0.19370       -0.53544
C          6.70690       -0.87227       -0.17899
H          7.77921       -0.79121       -0.33002
C          6.17683       -2.04970        0.37117
C          4.81162       -2.18237        0.57634
C          3.97062       -1.12433        0.22642
C          2.54347       -0.91329        0.29469
C          1.46919       -1.69320        0.72494
C          0.18590       -1.18391        0.65121
C         -2.60452       -0.12405        0.11260
C         -3.12479       -1.48425        0.10705
O         -2.63643       -2.59061        0.23831
N         -4.51847       -1.25919       -0.10504
O         -5.45051       -2.24163        0.07632
C         -5.51934       -3.08175       -1.07856
C         -4.85985        0.07255       -0.12737
H         -5.89384        0.36658       -0.23781
C         -3.71363        0.78923       -0.01034
C         -3.20358        2.14920       -0.07367
O         -3.71635        3.24444       -0.09593
N         -1.79162        1.92584       -0.06691
O         -0.94083        2.98445        0.06533
C         -0.81266        3.36734        1.43796
H          0.83312        1.89952       -0.69109
H          2.75111        2.75215       -1.31288
H          4.19955        2.17041       -2.15125
H          4.33402        2.88206       -0.52238
H          6.31216        1.10039       -0.96023
H          6.84528       -2.86189        0.63850
H          4.40139       -3.09332        1.00248
H          1.63416       -2.69394        1.11221
H         -0.65417       -1.79723        0.95694
H         -6.29002       -3.81678       -0.84285
H         -4.56081       -3.57991       -1.24275
H         -5.80830       -2.50145       -1.96202
H         -0.13118        4.21898        1.43083
H         -0.38298        2.54817        2.02500
H         -1.78358        3.66805        1.84061
