46
COMP97_300001.log	Energy: -1451157.8526591
C         -1.50449       -0.21533        0.35613
C         -0.04175       -0.21206        0.59410
C          0.59851       -0.40224        1.78015
H          0.09060       -0.52670        2.72857
C          2.01970       -0.40185        1.64575
C          2.88501       -0.58954        2.76371
N          3.58196       -0.73863        3.67946
C          2.45063       -0.22502        0.34091
S          1.08437       -0.06378       -0.70872
C          3.77718       -0.17858       -0.24986
C          4.93357       -0.08649        0.43432
C          6.26206       -0.05844       -0.15396
C          6.71055       -0.26187       -1.45066
C          5.86790       -0.57836       -2.55715
N          5.18897       -0.83264       -3.46327
C          8.12745       -0.14010       -1.58880
H          8.64378       -0.27010       -2.53152
C          8.73925        0.14851       -0.40892
H          9.79497        0.29283       -0.22737
S          7.60952        0.27694        0.88067
C         -2.13360       -1.48215        0.30213
C         -3.48075       -1.60183        0.07522
C         -4.09652       -2.95676        0.02258
O         -3.47407       -3.98461        0.18103
N         -5.46285       -2.97287       -0.22563
H         -5.89364       -3.88962       -0.26742
C         -6.31539       -1.89338       -0.42642
O         -7.49744       -2.06098       -0.63665
C         -5.67057       -0.55325       -0.36116
C         -6.43567        0.57492       -0.54217
H         -7.49847        0.46459       -0.72878
C         -5.83689        1.84573       -0.48065
C         -4.48730        1.97096       -0.24312
C         -3.89414        3.33091       -0.17834
O         -4.52625        4.35471       -0.32950
N         -2.53239        3.35762        0.07787
H         -2.11094        4.27759        0.13973
C         -1.65867        2.29528        0.27919
O         -0.49101        2.51382        0.51855
C         -2.26831        0.93228        0.18395
C         -3.66836        0.82564       -0.05630
C         -4.27804       -0.44890       -0.11610
H          3.79733       -0.21505       -1.33497
H          4.91081       -0.01670        1.51788
H         -1.54054       -2.38074        0.43769
H         -6.42410        2.74732       -0.61845
