35
COMP27_230300.log	Energy: -2012675.0642367
C          3.05433        0.32542       -0.05554
C          1.69084       -0.12102        0.26116
C          1.34409       -1.23706        0.98955
C          2.29817       -2.09634        1.61331
N          3.09143       -2.77337        2.11784
C         -0.06976       -1.40724        1.07927
Cl        -0.78650       -2.70990        1.95122
C         -0.78741       -0.43514        0.42663
S          0.29210        0.69617       -0.32488
C         -2.23103       -0.32591        0.33561
C         -2.88765        0.77434       -0.06930
C         -4.33021        0.90812       -0.20420
C         -5.33058       -0.01563       -0.38668
Cl        -5.10255       -1.71903       -0.53885
C         -6.63607        0.56696       -0.48979
C         -7.83909       -0.17748       -0.68538
N         -8.82241       -0.76925       -0.84437
C         -6.60381        1.93164       -0.38648
H         -7.44632        2.60744       -0.42724
S         -5.01327        2.51108       -0.16574
C          3.95133       -0.57397       -0.71851
N          3.64910       -1.80494       -1.13270
S          4.99995       -2.40758       -1.79238
N          6.00954       -1.15206       -1.60848
C          5.30538       -0.19413       -1.00072
C          5.77798        1.09900       -0.65678
H          6.79918        1.38668       -0.87588
C          4.90564        1.95996       -0.04833
C          5.35507        3.27808        0.30307
N          5.73514        4.33833        0.57279
C          3.54481        1.57476        0.26309
C          2.71749        2.52157        0.95603
N          2.05434        3.29066        1.51347
H         -2.77546       -1.21303        0.63992
H         -2.32104        1.67469       -0.30496
