52
COMP97_020002.log	Energy: -2055818.2242084
C          1.17907       -0.10745        0.13099
C         -0.26689       -0.05964        0.43436
C         -0.86537        0.17208        1.63961
Cl         0.02182        0.54502        3.08209
C         -2.28241        0.11719        1.61000
H         -2.90336        0.31772        2.47408
C         -2.76594       -0.17833        0.36276
S         -1.46325       -0.37649       -0.77110
C         -4.14278       -0.33322       -0.08203
C         -5.18022       -0.55217        0.74259
C         -6.56757       -0.63318        0.30990
C         -7.13840       -0.21834       -0.86579
H         -6.60317        0.28430       -1.66173
C         -8.53177       -0.49275       -0.91180
Cl        -9.51888       -0.07494       -2.27753
C         -9.01824       -1.09474        0.20964
H        -10.03645       -1.39181        0.41450
S         -7.76113       -1.34599        1.35554
C          1.76687       -1.38864        0.00279
C          3.11170       -1.53961       -0.22051
C          3.67514       -2.91217       -0.34501
O          3.01159       -3.91919       -0.25515
N          5.05702       -2.96134       -0.56433
O          5.57783       -4.20185       -0.81264
C          6.02868       -4.81789        0.39528
C          5.95676       -1.89115       -0.64825
O          7.14230       -2.07373       -0.80470
C          5.34251       -0.54161       -0.51494
C          6.14959        0.56986       -0.58996
H          7.21494        0.43663       -0.74320
C          5.58896        1.85338       -0.46730
C          4.23502        2.00909       -0.27454
C          3.69323        3.38684       -0.14639
O          4.37386        4.38553       -0.21236
N          2.31206        3.44953        0.03803
O          1.79000        4.69809        0.23742
C          1.43382        5.31085       -1.00382
C          1.38361        2.39665        0.05377
O          0.19921        2.63302        0.07828
C          1.97712        1.02337        0.00967
C          3.37719        0.88283       -0.19397
C          3.94828       -0.40463       -0.31243
H         -4.31762       -0.26662       -1.15392
H         -4.99490       -0.68825        1.80624
H          1.14579       -2.27381        0.09383
H          6.40950       -5.78996        0.08083
H          5.19682       -4.95205        1.09299
H          6.83420       -4.23203        0.84767
H          6.21058        2.74074       -0.51914
H          1.03283        6.28494       -0.72258
H          0.66346        4.72518       -1.51347
H          2.31780        5.44111       -1.63487
