58
COMP91_400002.log	Energy: -1622013.1583786
C         -0.70415        0.06769       -0.04525
C          0.76389        0.09016       -0.14385
C          1.68937        0.72135        0.64423
O          1.38890        1.64919        1.56967
C          3.05271        0.26368        0.43462
C          4.23611        0.68118        1.06383
C          4.32130        1.72562        2.14499
C          5.40206        0.05531        0.62687
S          6.99101        0.41202        1.27521
C          7.71623       -0.75312        0.20289
H          8.78658       -0.91297        0.22482
C          6.81884       -1.37551       -0.59574
O          7.10651       -2.32485       -1.52575
C          5.44968       -0.93667       -0.38502
C          4.26641       -1.35194       -1.01463
C          4.18019       -2.39231       -2.10031
C          3.10183       -0.73446       -0.56647
S          1.51673       -1.08586       -1.21853
C         -1.25660       -1.23614        0.14678
C         -2.59785       -1.45947        0.26015
C         -3.07724       -2.84747        0.51257
O         -2.34336       -3.80255        0.61879
N         -4.46778       -2.97830        0.60479
O         -4.93112       -4.21256        0.97011
C         -5.18006       -5.02608       -0.17815
C         -5.43947       -1.98171        0.45184
O         -6.62040       -2.23670        0.51154
C         -4.90604       -0.61353        0.20245
C         -5.79502        0.42499        0.03033
H         -6.85932        0.22586        0.08808
C         -5.30833        1.71185       -0.23325
C         -3.95025        1.95053       -0.29768
C         -3.50531        3.32090       -0.63449
O         -4.24923        4.25493       -0.83050
N         -2.11611        3.46794       -0.70102
O         -1.65741        4.69800       -1.08356
C         -1.54626        5.58595        0.03236
C         -1.13991        2.53478       -0.35736
O          0.01785        2.91321       -0.25661
C         -1.59769        1.14254       -0.14355
C         -3.00972        0.91060       -0.09373
C         -3.51431       -0.38864        0.13132
H          0.80498        2.29025        1.11059
H          3.34927        2.15627        2.37191
H          5.00044        2.53103        1.83935
H          4.73136        1.28654        3.06295
H          8.05731       -2.48761       -1.52140
H          5.14600       -2.84281       -2.31641
H          3.79262       -1.94614       -3.02477
H          3.48466       -3.18858       -1.80766
H         -0.58495       -2.08200        0.24494
H         -5.55926       -5.96385        0.22881
H         -4.25200       -5.20634       -0.72823
H         -5.93819       -4.56548       -0.81840
H         -5.98646        2.54113       -0.40328
H         -1.17724        6.51674       -0.39870
H         -0.82427        5.20201        0.75858
H         -2.52480        5.75024        0.49158
