37
COMP25_000220.log	Energy: -1435909.7089703
C          1.74955       -0.22011       -0.13912
C          0.29670       -0.49873       -0.26411
C         -0.59755        0.21199        0.53117
C         -1.95112       -0.03860        0.35166
N         -3.03348        0.51593        1.00478
O         -2.95028        1.62162        1.80560
C         -2.89435        2.81359        1.01325
C         -4.21394        0.04228        0.46471
C         -5.52871        0.37381        0.78116
C         -6.53082       -0.29050        0.08797
H         -7.56919       -0.05983        0.30644
C         -6.23298       -1.25886       -0.88373
C         -4.91748       -1.57806       -1.18923
C         -3.88745       -0.91706       -0.51785
C         -2.43948       -0.96550       -0.59294
C         -1.52403       -1.67309       -1.37231
C         -0.16877       -1.43451       -1.20728
C          2.22493        1.11655       -0.36848
N          1.46493        2.16859       -0.68011
S          2.47294        3.43421       -0.83626
N          3.89906        2.71733       -0.52359
C          3.62270        1.43513       -0.28159
C          4.57044        0.42618        0.03514
H          5.62517        0.66304        0.09618
C          4.10677       -0.83370        0.25981
Cl         5.25895       -2.07296        0.65272
C          2.69887       -1.15979        0.18267
Cl         2.21536       -2.78559        0.55546
H         -0.25596        0.93753        1.26057
H         -2.84596        3.63026        1.73477
H         -3.79420        2.90736        0.39622
H         -2.00095        2.81569        0.37918
H         -5.74927        1.11347        1.54312
H         -7.04395       -1.76252       -1.40017
H         -4.69064       -2.32688       -1.94262
H         -1.86553       -2.39331       -2.10961
H          0.54907       -1.96882       -1.82078
