42
COMP26_000220.log	Energy: -1497717.6811701
C         -1.96641       -0.24032       -0.23682
C         -0.51981       -0.53763       -0.38046
C          0.40461        0.14354        0.42353
C          1.75285       -0.10003        0.25271
C          2.94644        0.52930        0.98477
O          2.90094        1.93478        1.02496
C          2.72309        2.58004       -0.21950
O          3.10818        0.09383        2.29824
C          2.05168        0.38688        3.19165
C          4.12127       -0.04198        0.19738
C          5.46654        0.21751        0.37828
C          6.38439       -0.44290       -0.44126
H          7.44733       -0.25694       -0.32032
C          5.94774       -1.34456       -1.41177
C          4.58828       -1.60196       -1.58944
C          3.67784       -0.94014       -0.77575
C          2.20329       -0.97487       -0.74338
C          1.29548       -1.65535       -1.54242
C         -0.06647       -1.43647       -1.34893
C         -2.41665        1.11016       -0.42826
N         -1.63796        2.15136       -0.72854
S         -2.61886        3.44274       -0.83704
N         -4.05554        2.74963       -0.51936
C         -3.80488        1.45625       -0.31105
C         -4.76847        0.45882       -0.00543
H         -5.81707        0.71519        0.07864
C         -4.32907       -0.81668        0.17776
Cl        -5.50141       -2.04202        0.55385
C         -2.92965       -1.16973        0.07128
Cl        -2.47323       -2.81541        0.38792
H          0.05951        0.87394        1.14823
H          2.84998        3.64722       -0.02854
H          1.72256        2.40280       -0.63384
H          3.47558        2.25639       -0.95081
H          2.43767        0.17788        4.19090
H          1.18116       -0.25510        3.00460
H          1.75541        1.43917        3.13044
H          5.79244        0.91834        1.14038
H          6.67503       -1.85184       -2.03879
H          4.25589       -2.30435       -2.34858
H          1.63165       -2.33434       -2.32041
H         -0.78720       -1.95095       -1.97696
