36
COMP51_100200.log	Energy: -2204210.3518863
C         -1.05695        0.77363       -0.01499
C          0.37821        0.55890       -0.01533
C          1.00641       -0.64802       -0.02528
F          0.31175       -1.79540       -0.03778
C          2.44257       -0.63055       -0.01714
C          3.36160       -1.69073       -0.02410
C          2.99185       -3.15004       -0.04232
C          4.70127       -1.31357       -0.00640
S          6.03701       -2.45151       -0.00594
C          7.19018       -1.15016        0.01903
H          8.25313       -1.34332        0.02642
C          6.59415        0.05694        0.02750
F          7.29184        1.19957        0.04601
C          5.14850        0.03272        0.01426
C          4.22778        1.08959        0.01927
C          4.59884        2.54880        0.03759
C          2.88743        0.71307        0.00251
S          1.56355        1.85925        0.00415
C         -1.79935        1.93631       -0.01846
Cl        -1.15177        3.53855       -0.02915
N         -3.14841        1.81661       -0.01336
C         -3.48582        0.55768       -0.00578
S         -2.17504       -0.56766       -0.00514
C         -4.86727        0.10709        0.00219
S         -6.18601        1.23629        0.00072
C         -7.27242       -0.09719        0.01490
H         -8.34460        0.03090        0.01931
C         -6.56249       -1.26094        0.01937
Cl        -7.28151       -2.83217        0.03389
N         -5.20743       -1.15223        0.01219
H          1.91935       -3.30658       -0.13078
H          3.33382       -3.64204        0.87626
H          3.48008       -3.65528       -0.88424
H          5.67359        2.69872        0.10884
H          4.12608        3.05209        0.88956
H          4.24372        3.04566       -0.87338
