31
COMP22_040300.log	Energy: -1365992.6222952
C         -1.69296        0.03961        0.15012
C         -0.27327       -0.26593        0.26169
C          0.27504       -1.43269        0.74652
H         -0.31443       -2.25172        1.13857
C          1.68163       -1.44648        0.67366
O          2.48182       -2.45945        1.10020
C          2.22629       -0.30381        0.11837
S          0.96696        0.81526       -0.29764
C          3.62553       -0.01222       -0.09802
S          4.91058       -1.10911        0.34679
C          6.11171       -0.01250       -0.20564
H          7.15817       -0.27414       -0.13052
C          5.58132        1.13516       -0.71244
H          6.16754        1.95197       -1.11910
C          4.15977        1.13167       -0.65023
O          3.35240        2.12709       -1.09477
C         -2.63410       -1.02682       -0.11421
N         -2.32708       -2.31537       -0.26519
S         -3.71664       -3.10078       -0.56026
N         -4.76426       -1.86139       -0.51736
C         -4.04191       -0.76989       -0.26464
C         -4.55816        0.54789       -0.15820
H         -5.61729        0.73713       -0.28010
C         -3.66778        1.55024        0.09824
C         -4.16835        2.89276        0.21564
N         -4.60762        3.96105        0.30138
C         -2.24794        1.30714        0.26488
C         -1.45393        2.45272        0.60290
N         -0.87118        3.41284        0.89026
H          1.93838       -3.20788        1.37097
H          3.87295        2.91663       -1.28102
