32
COMP57_120000.log	Energy: -2155606.3216153
C         -2.56691       -0.14073       -0.30744
C         -1.18413        0.29868       -0.23453
C         -0.64443        1.56009       -0.23272
Cl        -1.53342        3.03440       -0.32373
C          0.77371        1.55287       -0.17664
F          1.47047        2.68863       -0.17566
C          1.34373        0.30933       -0.13192
S          0.08232       -0.88706       -0.14209
C          2.73464       -0.09664       -0.06397
C          3.78167        0.75045       -0.04166
C          5.17280        0.34461        0.03727
C          5.73748       -0.90093        0.11277
F          5.03834       -2.03542        0.12380
C          7.15785       -0.90202        0.18161
Cl         8.08185       -2.35618        0.28096
C          7.67831        0.35571        0.15870
H          8.72062        0.63643        0.19880
S          6.43712        1.54115        0.05206
C         -3.03988       -1.26067       -0.94534
H         -2.42800       -1.93152       -1.53749
N         -4.37392       -1.50574       -0.82464
C         -4.94139       -0.58403       -0.09650
S         -3.88300        0.65673        0.49777
C         -6.36329       -0.55685        0.20897
S         -7.44150       -1.77581       -0.40268
C         -8.73119       -0.97698        0.40948
H         -9.74425       -1.35062        0.36384
C         -8.26565        0.12330        1.06585
H         -8.87171        0.79965        1.65545
N         -6.92243        0.35810        0.94977
H          2.91268       -1.16636       -0.02418
H          3.60366        1.82020       -0.08297
