29
COMP69_000011.log	Energy: -1024352.9264982
C          1.89676       -0.48096        0.00041
C          0.49257       -0.19531       -0.00011
C         -0.06983        1.06845        0.00111
C         -1.47529        1.01321        0.00161
C         -1.96726       -0.27874       -0.00033
S         -0.72502       -1.45892       -0.00276
C         -3.40877       -0.23769       -0.00021
C         -3.81597        1.07891        0.00196
C         -2.61880        2.00041        0.00380
H         -2.59809        2.64931        0.88742
H         -2.59829        2.65280       -0.87724
C         -5.22887        1.21282        0.00190
C         -5.84982       -0.00504       -0.00006
H         -6.91229       -0.20661       -0.00056
S         -4.73292       -1.33388       -0.00193
C          2.95608        0.39631       -0.00115
C          3.27753        1.81019       -0.00222
O          2.59849        2.82653       -0.00261
N          4.69480        1.79919       -0.00140
H          5.23212        2.65184       -0.00106
C          5.21417        0.51926        0.00019
H          6.28224        0.35157        0.00066
C          4.17759       -0.35690       -0.00018
C          3.84447       -1.78279        0.00119
O          4.51120       -2.79315        0.00375
N          2.42330       -1.76380        0.00101
H          1.89246       -2.62168        0.00611
H          0.54335        1.96628        0.00229
H         -5.76602        2.15378        0.00339
