54
COMP97_230002.log	Energy: -2171535.9184489
C          1.50972       -0.10034        0.21194
C          0.08448       -0.02205        0.60541
C         -0.40017        0.18902        1.87027
C          0.45463        0.43914        2.98445
N          1.18320        0.63593        3.86386
C         -1.82896        0.16094        1.91464
Cl        -2.70309        0.40938        3.38005
C         -2.41650       -0.07744        0.69897
S         -1.18874       -0.28308       -0.51932
C         -3.83615       -0.16075        0.41944
C         -4.37060       -0.28432       -0.80774
C         -5.78442       -0.37802       -1.13613
C         -6.90513       -0.64774       -0.38835
Cl        -6.92137       -1.00077        1.30066
C         -8.11903       -0.64611       -1.15137
C         -9.41456       -0.89717       -0.60529
N        -10.47170       -1.09834       -0.17582
C         -7.90019       -0.37771       -2.47526
H         -8.64294       -0.31744       -3.25790
S         -6.24296       -0.12581       -2.79982
C          2.08185       -1.38987        0.11935
C          3.41107       -1.55562       -0.17805
C          3.96504       -2.93599       -0.26427
O          3.30369       -3.93179       -0.08275
N          5.33010       -3.00234       -0.56270
O          5.83412       -4.25629       -0.77367
C          6.35616       -4.80762        0.43801
C          6.22309       -1.94139       -0.76382
O          7.39581       -2.13581       -0.98459
C          5.61820       -0.58383       -0.66929
C          6.41679        0.51963       -0.85898
H          7.47095        0.37553       -1.06957
C          5.86427        1.81103       -0.77615
C          4.52615        1.98211       -0.50541
C          3.98835        3.36514       -0.42464
O          4.65526        4.35756       -0.60516
N          2.62173        3.44110       -0.14074
O          2.11742        4.69939        0.03886
C          1.64631        5.24652       -1.19493
C          1.70766        2.39407        0.02113
O          0.52738        2.62232        0.15396
C          2.29798        1.02008       -0.01369
C          3.67891        0.86343       -0.30285
C          4.23948       -0.43103       -0.38669
H         -4.47221       -0.10150        1.29518
H         -3.70632       -0.30210       -1.67121
H          1.46913       -2.26777        0.29708
H          6.72056       -5.79519        0.15433
H          5.56609       -4.90371        1.18845
H          7.18450       -4.19819        0.81055
H          6.48147        2.69107       -0.92119
H          1.28200        6.23971       -0.93158
H          0.82566        4.64309       -1.59321
H          2.46449        5.33009       -1.91618
