47
COMP75_000000.log	Energy: -1232491.9757481
C         -0.36274        1.68624        0.05269
C          1.04953        1.30911       -0.14706
C          1.59371        0.22943        0.54493
C          2.93884       -0.06200        0.35019
N          3.69335       -1.08334        0.89968
C          3.20659       -2.09450        1.80434
C          4.99537       -0.96049        0.44865
C          6.11169       -1.74205        0.75116
C          7.31486       -1.40698        0.14550
H          8.19958       -1.99738        0.36508
C          7.41476       -0.32147       -0.73728
C          6.30345        0.45658       -1.02758
C          5.08225        0.14227       -0.43017
C          3.75859        0.72062       -0.49310
C          3.20279        1.80447       -1.17115
C          1.85880        2.09193       -0.99709
C         -1.53146        0.95012        0.06012
C         -1.67138       -0.50635       -0.20726
O         -0.72303       -1.25467       -0.39375
C         -3.06555       -1.00786       -0.23186
C         -3.39551       -2.31512       -0.48690
C         -2.50459       -3.47573       -0.80258
S         -5.11292       -2.51525       -0.40953
C         -5.40422       -0.85293       -0.03353
C         -6.79251       -0.33170        0.16808
C         -4.21321       -0.17676        0.02636
C         -4.08516        1.26188        0.31310
O         -5.03820        1.99316        0.53785
C         -2.69232        1.77037        0.29412
C         -2.39486        3.08845        0.46749
H         -3.10004        3.88723        0.65138
S         -0.71020        3.36465        0.35240
H          0.97140       -0.36207        1.20364
H          2.14714       -2.27641        1.60931
H          3.33360       -1.80283        2.85374
H          3.74230       -3.03124        1.62962
H          6.05154       -2.57702        1.44215
H          8.37180       -0.08985       -1.19387
H          6.38074        1.29894       -1.70924
H          3.81207        2.41566       -1.83027
H          1.41386        2.92175       -1.53772
H         -1.78578       -3.63510        0.00559
H         -1.91993       -3.27134       -1.70383
H         -3.08120       -4.39236       -0.95353
H         -7.53668       -1.12690        0.07270
H         -7.01361        0.45042       -0.56385
H         -6.88691        0.12828        1.15540
