68
COMP81_400023.log	Energy: -1813553.0836307
C          0.63748       -0.11919       -0.19108
C          2.09574       -0.24653       -0.16525
C          2.97832        0.56113        0.49595
O          2.68238        1.63119        1.26732
C          4.35825        0.15495        0.34714
C          5.52873        0.73560        0.85223
O          5.54148        1.86361        1.61682
C          5.25110        1.64271        2.99329
C          6.73941        0.13997        0.51662
S          8.30049        0.71747        1.04585
C          9.08434       -0.59442        0.19992
H         10.16244       -0.68592        0.23251
C          8.22109       -1.41073       -0.45092
O          8.53390       -2.50324       -1.19392
C          6.83701       -1.01330       -0.29617
C          5.66582       -1.59530       -0.79743
O          5.65456       -2.72325       -1.56421
C          5.94946       -2.49862       -2.93840
C          4.45625       -1.00053       -0.46192
S          2.89955       -1.57479       -0.99855
C         -0.19595       -1.24716       -0.16428
C         -1.57667       -1.12621       -0.15152
C         -2.17118        0.14073       -0.13391
C         -3.55601        0.61198       -0.21884
C         -3.46591        2.11693       -0.32282
O         -4.36036        2.92428       -0.32868
N         -2.08887        2.44168       -0.28555
C         -1.53544        3.72499       -0.17262
O         -0.40937        3.92453        0.22185
O         -2.38270        4.66371       -0.56509
C         -1.90406        6.00325       -0.42233
C         -1.32263        1.26060       -0.19109
C          0.05575        1.15742       -0.24087
C         -4.75327       -0.04212       -0.15339
C         -4.87376       -1.43087        0.42588
O         -4.00301       -2.11672        0.89989
N         -6.25004       -1.75630        0.41851
C         -6.83305       -2.93318        0.90738
O         -8.02652       -3.07815        1.03489
O         -5.92440       -3.85659        1.19026
C         -6.45199       -5.07411        1.71943
C         -6.99143       -0.68727       -0.14250
C         -8.35440       -0.63507       -0.39147
C         -8.85298        0.49770       -1.03091
H         -9.91854        0.56263       -1.22893
C         -8.00944        1.53280       -1.42322
C         -6.64651        1.47231       -1.15992
C         -6.12014        0.36323       -0.49157
H          1.72162        1.72083        1.34477
H          5.36549        2.60973        3.48495
H          5.95718        0.92367        3.42659
H          4.22476        1.28624        3.12230
H          9.49073       -2.62565       -1.17787
H          5.82989       -3.46272       -3.43475
H          6.97841       -2.14762       -3.06477
H          5.24921       -1.77342       -3.37107
H          0.24751       -2.23732       -0.13100
H         -2.18835       -2.01428       -0.12314
H         -2.71987        6.63444       -0.77073
H         -1.00885        6.15649       -1.02873
H         -1.67325        6.21540        0.62387
H          0.66137        2.04476       -0.36609
H         -5.58287       -5.70657        1.89332
H         -7.13312       -5.54017        1.00401
H         -6.98358       -4.88617        2.65491
H         -9.00222       -1.44646       -0.09533
H         -8.41482        2.40108       -1.93234
H         -6.00258        2.28545       -1.45567
