54
COMP85_000021.log	Energy: -945004.4768714
C          0.63924       -0.54054       -0.24470
C          2.11651       -0.65954       -0.30803
C          2.91309        0.45930       -0.06372
C          4.29218        0.29921       -0.12351
N          5.29046        1.23165        0.06824
O          5.07747        2.50074        0.52819
C          5.00532        2.50896        1.95740
C          6.53460        0.64097       -0.03151
C          7.79838        1.20389        0.12395
C          8.88884        0.36359       -0.05420
H          9.89078        0.76670        0.05910
C          8.72437       -0.99103       -0.38207
C          7.45770       -1.53730       -0.53644
C          6.34089       -0.71976       -0.35470
C          4.90786       -0.93743       -0.41249
C          4.09605       -2.04271       -0.66851
C          2.71857       -1.89861       -0.61174
C         -0.01202        0.59240       -0.74536
C         -1.39379        0.74036       -0.67502
C         -2.17236       -0.26114       -0.09101
C         -3.61780       -0.48260        0.10925
C         -3.71709       -1.88141        0.70767
O         -4.68899       -2.52678        1.04657
N         -2.42591       -2.32076        0.86387
H         -2.22067       -3.23312        1.23901
C         -1.49968       -1.40997        0.37434
C         -0.12913       -1.56699        0.32060
C         -4.70193        0.32065       -0.08854
C         -4.58404        1.81053       -0.38470
O         -3.60053        2.50910       -0.53144
N         -5.86736        2.29601       -0.41245
H         -6.06014        3.26790       -0.59515
C         -6.81142        1.29458       -0.23039
C         -8.18761        1.42682       -0.26693
C         -8.95209        0.27317       -0.09862
H        -10.03547        0.34441       -0.12096
C         -8.33822       -0.96158        0.08766
C         -6.94915       -1.07699        0.12753
C         -6.15591        0.06341       -0.01726
H          2.47574        1.42107        0.18251
H          4.83915        3.55251        2.22793
H          5.94330        2.14934        2.39351
H          4.17049        1.89159        2.30556
H          7.91623        2.25557        0.36180
H          9.60073       -1.61684       -0.51780
H          7.33508       -2.58648       -0.78956
H          4.53674       -3.00511       -0.91180
H          2.08407       -2.75077       -0.83537
H          0.57292        1.37190       -1.22340
H         -1.86053        1.63072       -1.06554
H          0.34364       -2.45532        0.72826
H         -8.65266        2.39431       -0.42803
H         -8.94439       -1.85361        0.20774
H         -6.48715       -2.03889        0.28428
