42
COMP71_300001.log	Energy: -1739958.4192788
C          1.49594        1.37125        0.48294
C          0.10314        0.95111        0.33591
C         -0.48751       -0.15512        0.87763
C          0.26750       -1.05188        1.69135
N          0.90159       -1.75247        2.36349
C         -1.89849       -0.27342        0.56027
C         -2.80165       -1.28038        0.93204
C         -2.39487       -2.47153        1.75853
C         -4.10604       -1.10968        0.47613
S         -5.42526       -2.22357        0.80085
C         -6.52104       -1.25089       -0.10007
H         -7.55581       -1.54847       -0.20533
C         -5.95135       -0.13448       -0.62924
C         -6.72604        0.77454       -1.41306
N         -7.37772        1.49515       -2.04645
C         -4.53631       -0.01232       -0.31280
C         -3.63408        0.99429       -0.68385
C         -4.03849        2.17993       -1.51985
C         -2.32959        0.82278       -0.22921
S         -1.01096        1.92451       -0.57248
C          2.65277        0.70831        0.14517
C          2.73869       -0.59958       -0.56734
O          1.76576       -1.22071       -0.95051
C          4.12309       -1.07669       -0.79282
C          4.43288       -2.26530       -1.38929
H          3.73744       -3.00347       -1.76439
S          6.13275       -2.49365       -1.48508
C          6.44925       -0.98631       -0.72433
H          7.45798       -0.64160       -0.54280
C          5.29083       -0.33719       -0.40777
C          5.21434        0.98398        0.25082
O          6.19344        1.63470        0.56567
C          3.82717        1.45660        0.49628
C          3.54001        2.65795        1.07576
H          4.25418        3.39316        1.42107
S          1.85353        2.90478        1.21714
H         -1.58149       -3.02452        1.28023
H         -3.22642       -3.16621        1.90075
H         -2.04259       -2.16851        2.74917
H         -4.88204        2.71286       -1.07270
H         -4.34480        1.87194       -2.52449
H         -3.21914        2.89520       -1.62799
