30
COMP52_010300.log	Energy: -1645991.5130783
C         -0.56415        0.25873       -0.16674
C          0.80766       -0.20554       -0.19828
C          1.22133       -1.48696       -0.47242
H          0.56983       -2.30889       -0.74350
C          2.61959       -1.60995       -0.38385
F          3.24487       -2.76748       -0.62028
C          3.29348       -0.46197       -0.04818
S          2.15527        0.83231        0.16698
C          4.71991       -0.28103        0.10871
S          5.87751       -1.55895       -0.14125
C          7.19636       -0.51959        0.23808
H          8.20549       -0.90674        0.21444
C          6.79757        0.74632        0.54334
H          7.45327        1.56377        0.81244
C          5.38835        0.86177        0.46435
F          4.75353        2.00931        0.72106
C         -1.09475        1.53159       -0.28140
C         -0.32821        2.72492       -0.46912
N          0.29758        3.68906       -0.61820
N         -2.45961        1.62972       -0.22364
C         -2.99113        0.45604       -0.06761
S         -1.86784       -0.86589        0.04061
C         -4.42490        0.22859        0.01877
S         -5.55803        1.54686       -0.08143
C         -6.82845        0.41230        0.10058
H         -7.86804        0.70744        0.11199
C         -6.31648       -0.85191        0.22114
C         -7.11928       -2.02755        0.38746
N         -7.79107       -2.96139        0.52086
N         -4.94950       -0.95106        0.17389
