28
COMP62_110001.log	Energy: -1249442.6402643
C          2.24820        0.48276       -0.19875
C          0.89937       -0.02405       -0.21234
C          0.48924       -1.30429       -0.46633
F          1.28362       -2.30758       -0.78353
C         -0.91824       -1.45653       -0.41511
F         -1.50539       -2.62988       -0.64145
C         -1.59962       -0.30484       -0.13318
S         -0.47401        1.00497        0.09329
C         -3.03001       -0.13009       -0.00649
S         -4.16605       -1.43897       -0.19990
C         -5.51602       -0.40749        0.09548
H         -6.52536       -0.79108        0.08182
C         -5.11798        0.86826        0.32809
F         -5.92246        1.89375        0.58570
C         -3.70735        1.02501        0.26956
F         -3.11775        2.20335        0.47086
C          3.42380       -0.12941        0.13172
C          3.97856       -1.36157        0.69450
O          3.49236       -2.42123        1.02539
N          5.35985       -1.04017        0.81294
H          6.02798       -1.70036        1.17870
C          5.63770        0.24938        0.41524
H          6.64023        0.64965        0.48263
C          4.48620        0.82888       -0.00917
C          3.92004        2.09695       -0.46987
O          4.40608        3.16602       -0.76357
N          2.52922        1.80517       -0.52497
H          1.88193        2.43802       -0.97198
