33
COMP17_440000.log	Energy: -1371032.2843246
C         -3.55896        0.78655       -0.07097
C         -2.22345        0.26231       -0.10196
C         -1.78737       -0.99699       -0.46297
O         -2.46091       -2.08176       -0.87543
C         -0.36826       -1.13277       -0.40987
O          0.23588       -2.29661       -0.73298
C          0.28649        0.00816       -0.02310
S         -0.86138        1.28264        0.29857
C          1.70365        0.25769        0.14508
C          2.67809       -0.66712       -0.00253
C          4.09424       -0.37062        0.11045
C          4.74614        0.79907       -0.18380
O          4.21793        1.95885       -0.66753
C          6.16017        0.74264        0.01256
O          6.96838        1.80000       -0.23299
C          6.57395       -0.47619        0.45422
H          7.58475       -0.77950        0.68296
S          5.24836       -1.57403        0.62299
C         -4.04564        2.03170       -0.22510
C         -5.50902        2.13239       -0.10185
C         -6.14708        0.98569        0.14954
H         -7.20138        0.77699        0.25982
S         -4.94787       -0.30375        0.32340
O         -5.07891       -1.30076       -0.75545
O         -4.86182       -0.78144        1.69451
H         -3.43022       -1.93179       -0.93477
H         -0.46168       -2.92390       -0.97887
H          1.97090        1.26627        0.45713
H          2.40330       -1.69401       -0.22628
H          3.36376        1.76414       -1.07968
H          6.41414        2.51188       -0.58287
H         -3.43052        2.89234       -0.46023
H         -6.02091        3.07868       -0.23581
