36
COMP57_340200.log	Energy: -2241196.7746971
C         -1.74619        0.30088        0.50753
C         -0.32989        0.54204        0.26110
C          0.24324        1.74821       -0.04882
O         -0.38451        2.92559       -0.19454
C          1.66124        1.67247       -0.21638
C          2.44189        2.81940       -0.53409
N          3.08939        3.74642       -0.79367
C          2.15720        0.39222       -0.02372
S          0.87753       -0.70335        0.35751
C          3.50597       -0.14263       -0.07851
C          4.61732        0.55476       -0.38524
C          5.96270        0.01473       -0.42751
C          6.45604       -1.25678       -0.17399
C          5.70095       -2.39846        0.20880
N          5.15811       -3.37713        0.52047
C          7.87964       -1.35443       -0.32876
O          8.59496       -2.48002       -0.13740
C          8.44452       -0.16687       -0.69407
H          9.49167        0.02695       -0.87204
S          7.25984        1.06780       -0.85527
C         -2.41485        0.24292        1.70545
Cl        -1.65125        0.45614        3.23573
N         -3.75085        0.01468        1.66297
C         -4.14082       -0.11213        0.42326
S         -2.90043        0.03739       -0.77241
C         -5.52684       -0.35493        0.05342
S         -6.76584       -0.52235        1.25445
C         -7.90434       -0.74701       -0.01286
H         -8.95440       -0.91297        0.17660
C         -7.26604       -0.67861       -1.21676
Cl        -8.05573       -0.85077       -2.74242
N         -5.92530       -0.45809       -1.18420
H         -1.32273        2.81803        0.01596
H          3.58425       -1.20000        0.15803
H          4.54092        1.61080       -0.62547
H          8.00794       -3.20628        0.11556
