31
COMP47_010001.log	Energy: -1388647.5470813
C          2.90810        0.64157       -0.04392
C          1.47090        0.79754       -0.06858
C          0.76071        1.97493       -0.12875
F          1.36108        3.16823       -0.17641
C         -0.63949        1.85242       -0.14769
H         -1.30832        2.70070       -0.21316
C         -1.02308        0.53357       -0.09386
S          0.34504       -0.53071       -0.02826
C         -2.35707       -0.04168       -0.08256
C         -3.48992        0.66831        0.05768
C         -4.82859        0.10355        0.03447
C         -5.24244       -1.16256       -0.29599
H         -4.59142       -1.96233       -0.62555
C         -6.64702       -1.30332       -0.17567
F         -7.26240       -2.45483       -0.45108
C         -7.30376       -0.18105        0.22894
H         -8.36434       -0.05223        0.38384
S         -6.18299        1.10005        0.48020
C          3.68726       -0.48640        0.02478
C          3.48937       -1.95301        0.10597
O          2.47504       -2.61220        0.12705
N          4.78744       -2.47701        0.15776
H          4.96704       -3.46936        0.21357
C          5.81242       -1.52205        0.11407
O          6.99543       -1.75481        0.14332
C          5.08384       -0.22911        0.02871
C          5.40390        1.08501       -0.03752
H          6.37960        1.55071       -0.04946
S          3.96821        2.04313       -0.10625
H         -2.41457       -1.12294       -0.18908
H         -3.42689        1.74431        0.20836
