32
COMP52_300400.log	Energy: -1615865.0042734
C          0.89804       -0.01016       -0.36744
C         -0.47551        0.43929       -0.26377
C         -0.98210        1.72474       -0.25056
C         -0.17602        2.89582       -0.38840
N          0.45859        3.85941       -0.50234
C         -2.40111        1.78074       -0.11039
H         -2.95251        2.71261       -0.06709
C         -2.98037        0.54735       -0.03175
S         -1.77503       -0.70591       -0.09487
C         -4.39332        0.21458        0.08042
S         -5.60245        1.24237       -0.63352
C         -6.87204        0.23432       -0.08517
H         -7.90565        0.47731       -0.28787
C         -6.39242       -0.85242        0.59925
C         -7.23800       -1.85808        1.16379
N         -7.91888       -2.67610        1.62240
C         -4.96692       -0.86288        0.69648
H         -4.41045       -1.62869        1.22373
C          1.38673       -1.07917       -1.09736
O          0.69545       -1.90906       -1.89444
N          2.71713       -1.31396       -0.99935
C          3.27296       -0.43912       -0.20498
S          2.21910        0.74518        0.48113
C          4.69521       -0.42953        0.09519
S          5.77223       -1.59108       -0.60242
C          7.06266       -0.83926        0.25664
H          8.07860       -1.19973        0.17964
C          6.58172        0.21380        0.99082
O          7.27192        1.04753        1.79205
N          5.24419        0.44062        0.89674
H         -0.19877       -1.56795       -2.03355
H          8.20379        0.79987        1.78012
