60
COMP87_200003.log	Energy: -2153015.1170837
C         -0.58485        0.67916       -0.26843
C         -2.03764        0.84114       -0.38641
C         -2.72045        1.89716       -0.92571
H         -2.24789        2.76472       -1.36935
C         -4.12513        1.71291       -0.87653
Cl        -5.22145        2.90084       -1.50896
C         -4.53469        0.53007       -0.30729
S         -3.13606       -0.37605        0.19177
C         -5.89501        0.06899       -0.12493
C         -6.23809       -1.11648        0.41187
C         -7.57705       -1.64040        0.62028
C         -8.84063       -1.15935        0.35932
Cl        -9.19542        0.37613       -0.36858
C         -9.89745       -2.03531        0.73471
H        -10.94406       -1.79875        0.59081
C         -9.43366       -3.18976        1.28550
H        -10.00989       -4.02562        1.65652
S         -7.71686       -3.21768        1.35030
C          0.00930       -0.58800       -0.24473
C          1.38512       -0.73707       -0.15816
C          2.20762        0.39142       -0.10768
C          3.64700        0.57903        0.08928
C          3.84762        2.07112        0.20070
O          4.88398        2.68088        0.27877
N          2.56871        2.66426        0.07303
C          2.28120        4.03625        0.05699
O          1.21148        4.48429       -0.28512
O          3.30731        4.76183        0.47705
C          3.09070        6.17420        0.45761
C          1.59061        1.65795       -0.10077
C          0.22063        1.82260       -0.17832
C          4.69078       -0.30159        0.12476
C          4.58181       -1.69513       -0.44648
O          3.64520       -2.19108       -1.02084
N          5.84874       -2.30153       -0.28391
C          6.22340       -3.58365       -0.70812
O          7.36368       -3.98423       -0.67906
O          5.18320       -4.29323       -1.12405
C          5.50233       -5.60418       -1.59353
C          6.73274       -1.39819        0.35681
C          8.03920       -1.62807        0.75988
C          8.69508       -0.60682        1.44370
H          9.72100       -0.76411        1.76248
C          8.05573        0.59634        1.72673
C          6.74792        0.81666        1.31269
C          6.07149       -0.17821        0.60061
H         -6.65554        0.76345       -0.46198
H         -5.44334       -1.78782        0.73582
H         -0.60870       -1.47730       -0.32343
H          1.81580       -1.72574       -0.15935
H          4.01968        6.60783        0.82424
H          2.25542        6.44263        1.10813
H          2.88166        6.51493       -0.55878
H         -0.21496        2.81021       -0.14960
H          4.55465       -6.02423       -1.92680
H          5.92930       -6.20583       -0.78793
H          6.21349       -5.55296       -2.42075
H          8.52642       -2.56788        0.54791
H          8.57973        1.37619        2.26974
H          6.26601        1.75804        1.52377
