60
COMP81_100002.log	Energy: -1607051.9549971
C          0.54169       -0.04870       -0.06902
C          2.00517       -0.14950       -0.03842
C          2.92469        0.83967       -0.16143
F          2.57067        2.12264       -0.34182
C          4.30877        0.44019       -0.10809
C          5.47682        1.20995       -0.20840
C          5.50957        2.70305       -0.39981
C          6.67011        0.49845       -0.11248
S          8.26005        1.23663       -0.20424
C          9.02800       -0.31030       -0.00157
H         10.10410       -0.40520        0.01308
C          8.13305       -1.30769        0.12661
F          8.50365       -2.58407        0.29242
C          6.74563       -0.90535        0.07123
C          5.57739       -1.67427        0.16815
C          5.54848       -3.16724        0.36035
C          4.38495       -0.96350        0.07041
S          2.79965       -1.70094        0.16770
C         -0.23671       -1.12520       -0.51209
C         -1.62789       -1.06757       -0.54249
C         -2.28325        0.08883       -0.12008
C         -3.68920        0.54025       -0.04582
C         -3.61403        2.00893        0.35528
O         -4.47279        2.86205        0.44068
N         -2.28651        2.23354        0.63435
O         -1.79591        3.45544        0.98328
C         -1.65958        4.29575       -0.16861
C         -1.47137        1.16227        0.29653
C         -0.09635        1.13007        0.34853
C         -4.86890       -0.12853       -0.17649
C         -4.94721       -1.64452       -0.30784
O         -4.09188       -2.47599       -0.52515
N         -6.26919       -1.95814       -0.06669
O         -6.77193       -3.18967       -0.39251
C         -6.62615       -4.08739        0.70845
C         -7.08650       -0.83132       -0.08026
C         -8.46637       -0.80719       -0.06885
C         -9.07882        0.44518       -0.10144
H        -10.16285        0.50884       -0.09657
C         -8.31536        1.60821       -0.15029
C         -6.92146        1.55846       -0.16255
C         -6.27688        0.32076       -0.11726
H          4.51548        3.12802       -0.51717
H          6.09797        2.96062       -1.28882
H          5.98900        3.18749        0.45960
H          6.54594       -3.58938        0.46007
H          5.05505       -3.65265       -0.49049
H          4.97667       -3.42576        1.25984
H          0.24995       -2.02871       -0.86603
H         -2.19552       -1.91370       -0.89625
H         -1.23257        5.22394        0.21266
H         -2.63769        4.48747       -0.61745
H         -0.97981        3.84193       -0.89825
H          0.45738        1.98667        0.70908
H         -7.09847       -5.01371        0.37824
H         -7.13611       -3.69788        1.59586
H         -5.56791       -4.26103        0.92070
H         -9.03402       -1.73038       -0.05497
H         -8.80738        2.57464       -0.18574
H         -6.34304        2.46776       -0.20569
