27
COMP22_100200.log	Energy: -1857189.0023343
C          1.61327       -0.03656        0.08249
C          0.19343       -0.31004        0.32779
C         -0.35383       -1.13555        1.26889
F          0.37931       -1.83017        2.13688
C         -1.76787       -1.18686        1.28134
H         -2.34099       -1.77277        1.98889
C         -2.30754       -0.37423        0.32018
S         -1.07639        0.43810       -0.59069
C         -3.71335       -0.15491        0.01484
S         -4.87315       -1.43010        0.23994
C         -6.17234       -0.42982       -0.29159
H         -7.18930       -0.79053       -0.33058
C         -5.70803        0.80139       -0.63452
F         -6.48941        1.78451       -1.08494
C         -4.30988        0.97990       -0.46541
H         -3.79427        1.91146       -0.66371
C          2.10946        1.30647        0.18811
N          1.38034        2.37976        0.49228
S          2.40063        3.64480        0.48421
N          3.79366        2.89676        0.10505
C          3.49577        1.60403       -0.03198
C          4.41016        0.56590       -0.35206
H          5.45848        0.78682       -0.50918
C          3.92656       -0.70305       -0.45280
Cl         5.03862       -1.97687       -0.84613
C          2.52753       -1.01029       -0.25025
Cl         2.00618       -2.64682       -0.46561
