54
COMP82_240002.log	Energy: -2056541.4062309
C          0.61662        0.47275        0.27080
C          2.07210        0.59795        0.42654
C          2.80936        1.52674        1.10851
Cl         2.17359        2.83595        2.06161
C          4.21743        1.31750        1.04672
O          5.14082        2.09637        1.65173
C          4.56253        0.21742        0.30158
S          3.12894       -0.55400       -0.32385
C          5.89693       -0.27687        0.03348
S          7.33272        0.50254        0.65317
C          8.36636       -0.65351       -0.08763
H          9.43970       -0.59114        0.01643
C          7.65036       -1.58387       -0.77085
Cl         8.32535       -2.91894       -1.65577
C          6.23958       -1.38031       -0.70968
O          5.31642       -2.16669       -1.30583
C          0.00294       -0.78275        0.34455
C         -1.37277       -0.93876        0.18974
C         -2.17529        0.17932       -0.03629
C         -3.61364        0.41030       -0.29293
C         -3.72271        1.88966       -0.64049
O         -4.66106        2.55478       -1.02795
N         -2.46636        2.40208       -0.41703
O         -2.13290        3.69831       -0.67190
C         -1.96227        3.90948       -2.07841
C         -1.52303        1.42480       -0.13205
C         -0.16651        1.60837        0.01592
C         -4.69990       -0.40484       -0.18430
C         -4.62636       -1.79691        0.43206
O         -3.67960       -2.48474        0.74957
N         -5.93808       -2.16441        0.64460
O         -6.27417       -3.46098        0.92440
C         -6.27312       -3.67483        2.33650
C         -6.83631       -1.30919        0.01446
C         -8.19661       -1.49293       -0.12769
C         -8.90120       -0.50404       -0.81353
H         -9.97290       -0.61219       -0.95033
C         -8.24294        0.60756       -1.33184
C         -6.86618        0.77020       -1.17745
C         -6.13295       -0.19492       -0.48400
H          4.69343        2.80111        2.14132
H          5.76278       -2.88666       -1.77338
H          0.60784       -1.66046        0.54891
H         -1.81654       -1.91942        0.25804
H         -1.63578        4.94601       -2.16917
H         -2.91164        3.76664       -2.60095
H         -1.19476        3.23729       -2.47753
H          0.26912        2.59535       -0.08093
H         -6.58430       -4.71275        2.46318
H         -6.98471       -3.00429        2.83005
H         -5.26867       -3.53274        2.74395
H         -8.67776       -2.38073        0.26589
H         -8.80442        1.36347       -1.87115
H         -6.36939        1.63476       -1.58845
