41
COMP43_000033.log	Energy: -1096928.7129684
C         -0.21902       -1.01115       -0.76086
C         -1.50288       -0.56629       -0.18374
C         -1.89289        0.75111       -0.43006
C         -3.11102        1.23231        0.04132
C         -3.54758        2.64227       -0.18945
O         -4.58998        3.10056        0.21810
O         -2.65381        3.34298       -0.89779
C         -2.99673        4.70847       -1.13478
C         -3.96728        0.38878        0.74697
H         -4.91710        0.77630        1.09893
C         -3.58909       -0.92074        0.99728
C         -2.35416       -1.40256        0.56015
C         -2.01577       -2.80218        0.97627
O         -2.84148       -3.66825        1.14666
O         -0.70658       -2.96765        1.19431
C         -0.30861       -4.28368        1.58046
C          1.02610       -0.48876       -0.57808
C          1.62564        0.59637        0.22895
O          1.09770        1.41814        0.92924
N          3.02582        0.51164       -0.05557
C          4.00703        1.39727        0.45652
O          4.93028        1.81392       -0.18780
O          3.75445        1.66650        1.73210
C          4.63173        2.62330        2.32983
C          3.34937       -0.51081       -1.00289
O          4.45054       -0.79209       -1.38806
C          2.04457       -1.13494       -1.31871
C          1.59669       -2.15226       -2.09740
H          2.15361       -2.80022       -2.75994
S         -0.11451       -2.31148       -1.91912
H         -1.23933        1.40373       -0.99621
H         -2.16341        5.12571       -1.69845
H         -3.12445        5.23763       -0.18771
H         -3.92378        4.77538       -1.70909
H         -4.23775       -1.58924        1.55251
H          0.77127       -4.23252        1.71250
H         -0.56892       -5.00411        0.80130
H         -0.79908       -4.57123        2.51303
H          4.25091        2.76897        3.33943
H          4.61035        3.56188        1.77153
H          5.65360        2.23812        2.35228
