34
COMP73_000010.log	Energy: -1028908.0073296
C         -1.78618        0.85280        0.03771
C         -2.98449       -0.00998        0.01394
C         -3.15894       -1.01952        0.96590
C         -4.31389       -1.78965        0.96515
H         -4.43790       -2.56999        1.70976
C         -5.30907       -1.56406        0.01631
H         -6.21051       -2.16964        0.01778
C         -5.14407       -0.56118       -0.93312
C         -3.98958        0.21507       -0.93226
H         -3.85804        0.98971       -1.68284
C         -0.44048        0.55609        0.06171
C          0.16464       -0.80097       -0.00945
O         -0.49580       -1.82783       -0.04212
C          1.64512       -0.82215       -0.04318
C          2.38647       -1.97400       -0.12099
C          1.92590       -3.39641       -0.19322
S          4.07377       -1.58918       -0.12826
C          3.80215        0.11541       -0.02531
C          4.94289        1.08310        0.01660
C          2.45528        0.36848        0.01183
C          1.86447        1.71569        0.09166
O          2.52630        2.74150        0.14649
C          0.38150        1.73695        0.08934
C         -0.33993        2.89314        0.09018
H          0.05685        3.89890        0.10617
S         -2.02191        2.57507        0.06043
H         -2.38338       -1.19877        1.70136
H         -5.91206       -0.38199       -1.67937
H          1.33185       -3.64942        0.68940
H          2.77133       -4.08649       -0.26132
H          1.27563       -3.54279       -1.05978
H          5.90370        0.57500       -0.10071
H          4.94417        1.62736        0.96566
H          4.83401        1.83170       -0.77249
