48
COMP87_120001.log	Energy: -1991616.3262508
C         -0.78995        0.55501       -0.09253
C          0.65825        0.79580       -0.16301
C          1.35196        1.94622       -0.43737
Cl         0.66034        3.47706       -0.84439
C          2.76027        1.76382       -0.41840
F          3.59214        2.77344       -0.67520
C          3.17232        0.49094       -0.13068
S          1.77030       -0.50401        0.12787
C          4.50267       -0.07566       -0.01304
C          5.64905        0.61804       -0.14917
C          6.98056        0.05255       -0.03053
C          7.39239       -1.22771        0.22920
F          6.56191       -2.25015        0.43230
C          8.80411       -1.39741        0.26825
Cl         9.54750       -2.92424        0.57709
C          9.47273       -0.23472        0.03618
H         10.54200       -0.08462        0.00832
S          8.38117        1.06698       -0.23028
C         -1.34408       -0.59838       -0.65809
C         -2.70790       -0.86563       -0.58301
C         -3.55892        0.02845        0.06820
C         -5.01807        0.11741        0.29397
C         -5.21618        1.44336        1.01828
O         -6.22730        1.96826        1.43918
N         -3.96408        1.98343        1.17890
H         -3.82621        2.87321        1.63146
C         -2.97676        1.19335        0.61214
C         -1.62569        1.47026        0.56018
C         -6.04328       -0.73242       -0.00125
C         -5.82204       -2.15883       -0.49646
O         -4.79107       -2.77004       -0.69639
N         -7.06814       -2.70870       -0.64901
H         -7.19151       -3.66071       -0.95533
C         -8.07963       -1.81047       -0.33697
C         -9.44239       -2.02696       -0.42616
C        -10.28782       -0.97005       -0.09268
H        -11.36311       -1.10890       -0.15184
C         -9.76363        0.25575        0.30579
C         -8.38691        0.45691        0.39299
C         -7.51265       -0.58707        0.07980
H          4.54523       -1.13895        0.20071
H          5.60606        1.68158       -0.36144
H         -0.70264       -1.29556       -1.18803
H         -3.10389       -1.76732       -1.02187
H         -1.22214        2.36579        1.01899
H         -9.83657       -2.98478       -0.75089
H        -10.43264        1.07191        0.55835
H         -7.99559        1.40878        0.71485
