38
COMP62_340000.log	Energy: -1259860.3701834
C          2.20614       -0.43291        0.28920
C          0.80858       -0.77522        0.09213
C          0.24673       -1.94139       -0.39933
C          0.93312       -3.09035       -0.88207
N          1.39334       -4.06913       -1.30376
C         -1.17350       -1.86971       -0.48933
O         -1.97050       -2.85978       -0.94373
C         -1.68642       -0.66422       -0.06732
S         -0.40238        0.39532        0.43179
C         -3.08029       -0.27503       -0.03286
S         -4.37344       -1.32430       -0.56072
C         -5.56250       -0.14906       -0.21936
H         -6.60967       -0.34932       -0.39654
C         -5.01694        1.00412        0.28148
C         -5.73164        2.17487        0.66671
N         -6.23447        3.16534        1.00208
C         -3.59097        0.92867        0.38876
O         -2.79630        1.91222        0.85622
C          2.82941        0.74511       -0.01994
C          2.62884        2.02733       -0.69048
O          1.64973        2.58383       -1.14587
N          3.94056        2.58838       -0.70458
C          4.22121        3.89174       -1.26415
C          4.85225        1.74177       -0.11567
H          5.89884        2.01385       -0.06531
C          4.21497        0.62294        0.31786
C          4.43201       -0.69163        0.90704
O          5.40296       -1.23331        1.39055
N          3.14000       -1.29943        0.84425
C          2.89454       -2.55823        1.52182
H         -1.43912       -3.61622       -1.23062
H         -3.31503        2.70647        1.04735
H          3.28476        4.27138       -1.67624
H          4.96370        3.82052       -2.06456
H          4.57989        4.58260       -0.49488
H          3.65353       -2.66023        2.29972
H          2.97878       -3.40580        0.83772
H          1.90090       -2.55203        1.97604
