50
COMP87_240001.log	Energy: -1961484.9700106
C         -0.71774        0.64566        0.07360
C          0.72249        0.91232        0.12448
C          1.33302        2.11019        0.39932
O          0.73202        3.28283        0.69454
C          2.75568        2.01822        0.38024
Cl         3.75162        3.39274        0.70524
C          3.23358        0.76219        0.10058
S          1.90656       -0.33462       -0.14340
C          4.62312        0.36429        0.01002
C          5.04794       -0.88252       -0.26460
C          6.42221       -1.34030       -0.36290
C          7.63205       -0.76254       -0.06230
Cl         7.87316        0.82621        0.60072
C          8.76809       -1.59636       -0.31443
O         10.04876       -1.23790       -0.09060
C          8.40726       -2.81414       -0.80952
H          9.06605       -3.62398       -1.08487
S          6.69884       -2.94710       -0.96704
C         -1.26399       -0.52408        0.61498
C         -2.63342       -0.76865        0.59644
C         -3.50616        0.16983        0.04121
C         -4.96193        0.23292       -0.20275
C         -5.16651        1.51970       -0.99064
O         -6.17935        2.02464       -1.42998
N         -3.92550        2.10199       -1.10144
H         -3.79268        2.97087       -1.59463
C         -2.93207        1.32570       -0.52855
C         -1.57487        1.58580       -0.52441
C         -5.98874       -0.57806        0.18224
C         -5.81901       -1.69840        1.20351
O         -4.83214       -2.06212        1.81199
N         -7.06382       -2.24435        1.38136
H         -7.22247       -2.99812        2.03102
C         -8.02269       -1.63665        0.58161
C         -9.36127       -1.96938        0.48392
C        -10.14343       -1.24278       -0.41263
H        -11.19918       -1.47674       -0.51102
C         -9.58116       -0.22964       -1.18322
C         -8.23016        0.09525       -1.07099
C         -7.42378       -0.60150       -0.16771
H         -0.20375        3.11405        0.87440
H          5.33368        1.16509        0.17905
H          4.30595       -1.65923       -0.44676
H         10.06641       -0.33569        0.25850
H         -0.60743       -1.24928        1.08556
H         -3.02375       -1.67205        1.03795
H         -1.17617        2.46106       -1.02958
H         -9.78341       -2.77113        1.08156
H        -10.20023        0.32420       -1.88132
H         -7.81071        0.89080       -1.66617
