46
COMP67_320003.log	Energy: -2027393.6864573
C         -2.53507       -0.60405       -0.23525
C         -1.12862       -0.82020        0.06516
C         -0.54578       -1.76975        0.86272
Cl        -1.41541       -2.97881        1.72906
C          0.86992       -1.63996        0.95730
C          1.67098       -2.50870        1.75253
N          2.33716       -3.20880        2.39390
C          1.35756       -0.57356        0.21428
S          0.06513        0.25046       -0.57226
C          2.70351       -0.06686        0.01090
C          3.83493       -0.65063        0.45051
C          5.18236       -0.14656        0.24713
C          5.67397        0.91649       -0.49376
C          4.87432        1.79444       -1.28011
N          4.21049        2.50226       -1.91551
C          7.09783        1.03657       -0.39895
Cl         7.98752        2.26803       -1.21756
C          7.66696        0.08727        0.39091
H          8.71593       -0.03660        0.61760
S          6.48213       -0.97381        1.03627
C         -3.23844        0.55201       -0.14479
C         -3.08863        1.95181        0.26362
O         -2.12359        2.59377        0.58504
N         -4.45659        2.44079        0.17316
C         -4.95407        3.73241        0.41864
O         -6.12428        4.00100        0.28924
O         -3.99553        4.56047        0.79365
C         -4.42271        5.90066        1.05661
C         -5.32689        1.42283       -0.22646
H         -6.38327        1.63479       -0.30639
C         -4.61831        0.29496       -0.43112
C         -4.78107       -1.12255       -0.75049
O         -5.73626       -1.76310       -1.09732
N         -3.42427       -1.63567       -0.59868
C         -2.97977       -2.87301       -1.12129
O         -1.89741       -3.02393       -1.62984
O         -3.90548       -3.80119       -0.95903
C         -3.58802       -5.07558       -1.52624
H          2.75922        0.86120       -0.54971
H          3.77797       -1.57791        1.01232
H         -3.51954        6.43235        1.35040
H         -5.16005        5.91357        1.86189
H         -4.85783        6.34348        0.15823
H         -4.45889       -5.69844       -1.33031
H         -2.69765       -5.48988       -1.04855
H         -3.41507       -4.98002       -2.60025
