35
COMP27_430000.log	Energy: -1414557.2033614
C          3.24948        0.98647        0.17918
C          1.91057        0.39468        0.25250
C          1.52861       -0.82921        0.75933
C          2.36648       -1.78543        1.40251
N          2.93397       -2.62312        1.97075
C          0.11750       -1.06245        0.67387
O         -0.48852       -2.18178        1.11773
C         -0.57194       -0.02022        0.09976
S          0.53865        1.24581       -0.34335
C         -1.99063        0.13295       -0.16053
C         -2.93298       -0.81238        0.03960
C         -4.35357       -0.57574       -0.17482
C         -5.07122        0.56588        0.09283
O         -4.60105        1.71003        0.63000
C         -6.46378        0.44211       -0.22443
C         -7.41827        1.48610       -0.03609
N         -8.20233        2.32645        0.11360
C         -6.77520       -0.79799       -0.71677
H         -7.74876       -1.14417       -1.03379
S         -5.40663       -1.81886       -0.79423
C          4.36963        0.21970       -0.28772
N          4.33693       -1.04214       -0.71523
S          5.86008       -1.42573       -1.12804
N          6.61494       -0.02365       -0.80680
C          5.67981        0.81215       -0.34892
C          5.87903        2.16851        0.03598
H          6.87077        2.60260       -0.01723
C          4.79171        2.87728        0.45530
H          4.90498        3.91403        0.75500
C          3.49108        2.29140        0.52910
H          2.67151        2.90103        0.89846
H          0.16699       -2.77613        1.51232
H         -2.28986        1.08927       -0.58841
H         -2.63620       -1.79700        0.38870
H         -3.71899        1.53925        0.99276
