38
COMP67_220000.log	Energy: -2251878.2881800
C          3.34102       -0.23667        0.39131
C          1.98917       -0.70473        0.12318
C          1.55563       -1.86300       -0.47159
Cl         2.60013       -3.08250       -1.09721
C          0.13898       -1.92095       -0.60411
Cl        -0.67865       -3.25672       -1.32810
C         -0.50233       -0.80169       -0.12746
S          0.65049        0.32263        0.50760
C         -1.93154       -0.55401       -0.12554
C         -2.48885        0.64797        0.10513
C         -3.90648        0.96615        0.14100
C         -5.03988        0.19054        0.22620
Cl        -5.06059       -1.53076        0.34290
C         -6.24704        0.95733        0.24267
Cl        -7.82006        0.25432        0.34863
C         -6.02745        2.29799        0.17295
H         -6.76908        3.08329        0.16675
S         -4.35107        2.64841        0.08556
C          3.88689        0.97194        0.06310
C          3.62502        2.20119       -0.67802
O          2.63839        2.64709       -1.22934
N          4.88002        2.87872       -0.62132
C          5.08691        4.17686       -1.22273
C          5.81460        2.14380        0.07433
H          6.82465        2.51575        0.19032
C          5.24717        0.98982        0.51160
C          5.52368       -0.27281        1.18692
O          6.49646       -0.71284        1.76234
N          4.29261       -0.98549        1.06903
C          4.10277       -2.24356        1.76124
H         -2.54624       -1.41891       -0.34610
H         -1.83365        1.50395        0.26525
H          4.14743        4.45758       -1.70197
H          5.87735        4.13671       -1.97829
H          5.34263        4.92562       -0.46675
H          4.66619       -2.20602        2.69580
H          4.46673       -3.08350        1.16415
H          3.04225       -2.38860        1.97555
