35
COMP43_000031.log	Energy: -953985.1356714
C          0.88451        0.05208        0.50838
C         -0.43669        0.63237        0.20005
C         -1.54266       -0.21736        0.26659
C         -2.82863        0.26901        0.04919
C         -4.02971       -0.61803        0.09903
O         -5.15930       -0.23655       -0.10460
O         -3.71552       -1.88462        0.39727
C         -4.81515       -2.79328        0.44701
C         -3.02679        1.62338       -0.21330
H         -4.03608        1.98956       -0.36607
C         -1.93578        2.47463       -0.28545
C         -0.63921        1.98946       -0.10791
C          0.46073        2.98563       -0.31839
O          0.35695        4.16322       -0.06596
O          1.54487        2.43572       -0.87628
C          2.64025        3.32464       -1.09657
C          1.49161       -1.03579       -0.04140
C          1.20861       -2.00967       -1.12879
O          0.24995       -2.12336       -1.85268
N          2.34214       -2.83762       -1.14200
H          2.43977       -3.61057       -1.78497
C          3.31920       -2.52658       -0.18482
O          4.36092       -3.11323       -0.02532
C          2.75334       -1.35067        0.52867
C          3.12145       -0.52227        1.53743
H          4.01905       -0.53637        2.14024
S          1.89234        0.66525        1.79711
H         -1.39522       -1.26656        0.49179
H         -4.38309       -3.75961        0.70373
H         -5.31390       -2.84180       -0.52374
H         -5.53681       -2.47904        1.20459
H         -2.06885        3.52994       -0.49682
H          3.42517        2.71337       -1.53992
H          2.97674        3.75706       -0.15115
H          2.34731        4.12886       -1.77518
