28
COMP52_200100.log	Energy: -2107059.2397362
C          1.02050       -0.07745        0.05751
C         -0.34120        0.41695        0.02590
C         -0.82597        1.69739       -0.11099
Cl         0.16147        3.11146       -0.28712
C         -2.24019        1.80041       -0.11425
H         -2.76529        2.73906       -0.24287
C         -2.84893        0.58510        0.02612
S         -1.68412       -0.68930        0.17874
C         -4.27237        0.28598        0.06214
S         -5.40646        1.43741        0.70167
C         -6.73835        0.39410        0.38359
H         -7.75091        0.68982        0.61702
C         -6.31504       -0.77782       -0.16538
Cl        -7.38462       -2.06789       -0.61235
C         -4.90720       -0.85245       -0.35603
H         -4.40638       -1.70110       -0.80612
C          1.42953       -1.38207        0.20987
F          0.58110       -2.39289        0.35780
N          2.74319       -1.65417        0.20924
C          3.41213       -0.54110        0.05318
S          2.45846        0.89484       -0.10009
C          4.86170       -0.48564        0.00858
S          5.82391       -1.92108        0.15982
C          7.23394       -0.94625        0.00386
H          8.23280       -1.35403        0.02821
C          6.85585        0.35376       -0.14665
F          7.70149        1.36084       -0.29289
N          5.53179        0.62538       -0.14588
