27
COMP58_000000.log	Energy: -1202479.6372207
C          0.26132        0.08163       -0.11682
C          1.64037        0.52471       -0.09044
C          2.76233       -0.25766        0.00882
O          2.74400       -1.61299        0.08742
C          3.98063       -2.14681        0.55283
C          5.14881       -1.49164       -0.16381
O          5.19995       -0.09935        0.12344
C          3.98146        0.49356        0.01593
C          3.77666        1.83490       -0.07122
H          4.52428        2.61370       -0.08652
S          2.09441        2.20472       -0.17755
C         -0.21709       -1.19026       -0.32296
H          0.40822       -2.05222       -0.51099
N         -1.57334       -1.33460       -0.28687
C         -2.15479       -0.19218       -0.05690
S         -1.07795        1.15850        0.14473
C         -3.59470       -0.01588        0.03164
S         -4.67952       -1.36124       -0.17442
C         -5.99610       -0.27902        0.07666
H         -7.02121       -0.62033        0.05300
C         -5.53197        0.98367        0.29165
H         -6.15159        1.85238        0.47667
N         -4.17072        1.12957        0.26537
H          3.94619       -3.21821        0.34800
H          4.06624       -1.98673        1.63509
H          5.05556       -1.64561       -1.24690
H          6.09666       -1.91101        0.17863
