32
COMP51_100310.log	Energy: -1693816.5909898
C         -0.93987        0.74306       -0.00094
C          0.49507        0.55366       -0.00080
C          1.14684       -0.64167       -0.00228
F          0.51551       -1.81809       -0.00428
C          2.57387       -0.58014       -0.00134
C          3.48903       -1.63337       -0.00246
H          3.14900       -2.66344       -0.00423
C          4.83335       -1.29933       -0.00108
S          6.19398       -2.40371       -0.00191
C          7.32166       -1.07238        0.00096
H          8.38753       -1.24966        0.00144
C          6.69812        0.12158        0.00238
F          7.32174        1.30066        0.00464
C          5.26150        0.05271        0.00130
C          4.34536        1.10270        0.00234
H          4.68450        2.13305        0.00411
C          2.99947        0.76897        0.00102
S          1.65254        1.88635        0.00183
C         -1.68285        1.91280       -0.00134
C         -1.14283        3.23792       -0.00207
N         -0.71060        4.31342       -0.00281
N         -3.04354        1.77088       -0.00113
C         -3.36439        0.51255       -0.00042
S         -2.03739       -0.60465       -0.00008
C         -4.74051        0.04073        0.00005
S         -6.07682        1.15687       -0.00057
C         -7.14175       -0.18476        0.00059
H         -8.21607       -0.06689        0.00065
C         -6.42728       -1.35297        0.00147
C         -7.02515       -2.65551        0.00275
N         -7.53435       -3.69564        0.00370
N         -5.06223       -1.21915        0.00106
