38
COMP57_340400.log	Energy: -1758792.0390466
C         -2.11225        0.59709        0.22904
C         -0.67693        0.73930        0.06318
C         -0.02075        1.88546       -0.31900
O         -0.58452        3.06886       -0.62491
C          1.40016        1.73859       -0.36965
C          2.25342        2.81292       -0.74904
N          2.96018        3.68140       -1.05258
C          1.82122        0.45991       -0.03838
S          0.46621       -0.53954        0.35352
C          3.14181       -0.13811        0.02559
C          4.30757        0.50575       -0.18191
C          5.62457       -0.09771       -0.11510
C          6.03689       -1.38287        0.20611
C          5.20345       -2.47307        0.57589
N          4.59352       -3.41222        0.88509
C          7.46077       -1.55387        0.14300
O          8.10630       -2.70591        0.40999
C          8.10569       -0.40706       -0.22018
H          9.16961       -0.26900       -0.34129
S          6.99671        0.87842       -0.48679
C         -2.92991        1.40299        0.99466
O         -2.54414        2.45146        1.74364
N         -4.25617        1.11683        0.97455
C         -4.47985        0.08038        0.21389
S         -3.09100       -0.61490       -0.55245
C         -5.80265       -0.48647        0.00720
S         -7.20225        0.18708        0.77236
C         -8.14997       -1.02699       -0.00100
H         -9.21949       -1.08741        0.14155
C         -7.34317       -1.83120       -0.76307
O         -7.70244       -2.88806       -1.51680
N         -6.01865       -1.52165       -0.75607
H         -1.54450        2.96035       -0.69519
H          3.14874       -1.19772        0.26526
H          4.30201        1.56448       -0.42311
H          7.46947       -3.39610        0.64261
H         -1.57886        2.45315        1.81385
H         -8.65586       -3.01627       -1.44969
