27
COMP24_400400.log	Energy: -1296095.1207868
C          1.14059        0.36914       -0.09347
C         -0.31467        0.22468       -0.05327
C         -1.24136        1.12893        0.43262
O         -1.01999        2.31957        1.01948
C         -2.57178        0.63926        0.30274
S         -4.13109        1.26888        0.71526
C         -4.88631       -0.17557        0.08559
H         -5.96292       -0.27837        0.11845
C         -3.98841       -1.07757       -0.40675
O         -4.23325       -2.28867       -0.96303
C         -2.64781       -0.60240       -0.28039
S         -1.09303       -1.23620       -0.67431
C          2.02746       -0.74868        0.13290
N          1.64615       -1.99568        0.38492
S          3.00027       -2.88392        0.55923
N          4.12669       -1.72568        0.32956
C          3.46374       -0.59526        0.10748
C          4.05692        0.67610       -0.13309
H          5.13573        0.78743       -0.14260
C          3.20666        1.71333       -0.34453
O          3.58920        2.99660       -0.59991
C          1.77168        1.56338       -0.34203
O          1.04988        2.68882       -0.61437
H         -0.22952        2.71943        0.61378
H         -5.18333       -2.45377       -0.95839
H          4.55112        3.05937       -0.63603
H          1.67376        3.41262       -0.78356
