46
COMP82_410001.log	Energy: -1460649.2046187
C         -0.42832        0.45082        0.12853
C         -1.88384        0.60688        0.19874
C         -2.57418        1.69739        0.66123
O         -2.07488        2.85043        1.16270
C         -3.98041        1.50008        0.60288
F         -4.83191        2.44360        1.01266
C         -4.37602        0.28787        0.11312
S         -2.97278       -0.65973       -0.29624
C         -5.72864       -0.19681       -0.06616
S         -7.13330        0.74572        0.35335
C         -8.20710       -0.51461       -0.15027
H         -9.27665       -0.37766       -0.07081
C         -7.53534       -1.60442       -0.61613
O         -8.02440       -2.77279       -1.09221
C         -6.12476       -1.40644       -0.56148
F         -5.27446       -2.35161       -0.96993
C          0.19485       -0.75357        0.47583
C          1.57805       -0.89779        0.44017
C          2.38512        0.17838        0.06505
C          3.83294        0.37724       -0.14344
C          3.95234        1.78069       -0.72230
O          4.92910        2.40835       -1.07677
N          2.67671        2.29521       -0.74056
H          2.48433        3.21319       -1.10949
C          1.73559        1.37105       -0.31608
C          0.36370        1.53453       -0.28967
C          4.91177       -0.40809        0.13712
C          4.81769       -1.66829        0.99120
O          3.85370       -2.19174        1.51363
N          6.10141       -2.12945        1.13275
H          6.30878       -2.96276        1.65990
C          7.01628       -1.35641        0.43021
C          8.37546       -1.57851        0.30615
C          9.10517       -0.69397       -0.48648
H         10.17438       -0.84146       -0.60450
C          8.47303        0.36490       -1.13152
C          7.10236        0.57799       -0.99241
C          6.34655       -0.28023       -0.19012
H         -1.13114        2.72561        1.33596
H         -8.98791       -2.74604       -1.06382
H         -0.41257       -1.59057        0.80573
H          2.02768       -1.83453        0.72897
H         -0.09335        2.45215       -0.64931
H          8.85230       -2.41785        0.80250
H          9.05195        1.04031       -1.75286
H          6.62813        1.40936       -1.48950
