36
COMP67_330001.log	Energy: -1280434.2635742
C         -3.40383       -0.71218       -0.21723
C         -2.05955       -0.18066       -0.27491
C         -1.68005        1.12032       -0.52534
C         -2.58055        2.15974       -0.90453
N         -3.29174        3.00291       -1.25825
C         -0.25922        1.29913       -0.47343
C          0.36168        2.55871       -0.71882
N          0.88601        3.57476       -0.91171
C          0.42875        0.13162       -0.19293
S         -0.68098       -1.18222        0.01199
C          1.84633       -0.15301       -0.05178
C          2.82888        0.76796       -0.02967
C          4.24886        0.48581        0.09960
C          4.96032       -0.70103        0.11974
C          4.37558       -1.99514        0.00034
N          3.88318       -3.04082       -0.09469
C          6.37492       -0.49986        0.26446
C          7.33238       -1.55923        0.31417
N          8.11282       -2.41426        0.35575
C          6.70830        0.82426        0.34782
H          7.69951        1.24047        0.46040
S          5.33153        1.83148        0.25427
C         -4.53355       -0.15542        0.30232
C         -5.00944        0.98154        1.09976
O         -4.46718        1.97697        1.52093
N         -6.36993        0.63706        1.32869
H         -6.99255        1.24056        1.84343
C         -6.69870       -0.58418        0.78717
H         -7.69022       -0.99826        0.91202
C         -5.60879       -1.09444        0.15555
C         -5.10014       -2.29296       -0.51382
O         -5.61906       -3.31966       -0.88615
N         -3.71652       -1.98864       -0.67049
H         -3.12804       -2.54850       -1.27042
H          2.09162       -1.20553        0.04908
H          2.58083        1.82175       -0.10880
