23
COMP44_000001.log	Energy: -1167031.4561449
C         -0.87025        0.65731       -0.00042
C          0.56169        0.43500       -0.00047
C          1.20166       -0.77894        0.00010
H          0.66729       -1.72230       -0.00042
C          2.61002       -0.61648       -0.00053
S          3.96364       -1.69941        0.00087
C          5.06689       -0.35719        0.00086
H          6.13167       -0.54726        0.00162
C          4.45014        0.85714       -0.00021
H          4.97681        1.80287       -0.00013
C          3.03459        0.70242       -0.00093
S          1.68802        1.78768       -0.00082
C         -1.90979       -0.24098       -0.00262
C         -2.10121       -1.71192       -0.00033
O         -1.30082       -2.62147       -0.00202
N         -3.49101       -1.88266        0.00432
H         -3.92030       -2.79695       -0.00119
C         -4.23414       -0.69474        0.00046
O         -5.43743       -0.61412       -0.00080
C         -3.19489        0.36743       -0.00192
C         -3.17341        1.72144        0.00057
H         -3.99757        2.42089        0.00173
S         -1.53683        2.27818        0.00142
