44
COMP26_000420.log	Energy: -1015315.4226446
C         -2.22516       -0.67307       -0.06313
C         -0.76043       -0.86946       -0.16369
C          0.11137        0.07767        0.39636
C          1.47502       -0.09459        0.26678
C          2.61079        0.80847        0.76617
O          2.45305        2.16248        0.41663
C          2.17930        2.41841       -0.94567
O          2.81107        0.77421        2.14576
C          1.73153        1.21539        2.94518
C          3.82990        0.13812        0.14135
C          5.14728        0.54972        0.20817
C          6.11928       -0.23569       -0.41528
H          7.16218        0.06504       -0.37885
C          5.76216       -1.40680       -1.08336
C          4.42986       -1.81662       -1.14749
C          3.46486       -1.03132       -0.52994
C          1.99870       -1.17627       -0.45144
C          1.14843       -2.12791       -0.99587
C         -0.22702       -1.97154       -0.84051
C         -2.82413        0.60323       -0.35363
N         -2.17355        1.69529       -0.74834
S         -3.29209        2.86337       -0.95856
N         -4.64257        2.03588       -0.56377
C         -4.25017        0.80541       -0.25168
C         -5.10418       -0.26376        0.14417
H         -6.17506       -0.10834        0.22344
C         -4.51596       -1.45915        0.40605
O         -5.18013       -2.58239        0.79727
C         -3.08671       -1.67418        0.30490
O         -2.62976       -2.90914        0.60366
H         -0.28882        0.95234        0.89702
H          2.24917        3.50061       -1.07128
H          1.17338        2.08513       -1.22923
H          2.91593        1.93556       -1.60194
H          2.13676        1.34713        3.95030
H          0.92861        0.46784        2.97938
H          1.33156        2.16987        2.58731
H          5.41023        1.46179        0.73490
H          6.53082       -2.00691       -1.56165
H          4.15944       -2.72890       -1.67189
H          1.53927       -2.97456       -1.55305
H         -0.90021       -2.70489       -1.27060
H         -6.12332       -2.40001        0.88394
H         -3.38590       -3.45152        0.87255
