35
COMP66_000011.log	Energy: -621798.3920126
C          1.99365        0.45560       -0.03801
C          0.56199        0.17862       -0.03875
C         -0.38461        1.21441        0.04597
C         -1.73117        0.90813        0.03784
C         -2.92286        1.83438        0.12070
H         -2.91923        2.41974        1.04858
H         -2.94354        2.55000       -0.71040
C         -4.08899        0.87370        0.06742
C         -5.44962        1.13906        0.10741
C         -6.34559        0.07209        0.04517
H         -7.41389        0.26431        0.07746
C         -5.88427       -1.24172       -0.05638
C         -4.51967       -1.51244       -0.09684
C         -3.62575       -0.44760       -0.03377
C         -2.15912       -0.42669       -0.05129
C         -1.22945       -1.45924       -0.12800
C          0.12487       -1.15547       -0.12045
C          3.07132       -0.39724        0.00247
C          3.44695       -1.80536        0.07206
O          2.81413       -2.84783        0.08360
N          4.86177       -1.74621        0.11875
H          5.42381       -2.58184        0.15696
C          5.33880       -0.45254        0.07317
H          6.40011       -0.24750        0.10136
C          4.27749        0.38732        0.00015
C          3.91441        1.80185       -0.06378
O          4.56018        2.82601       -0.10849
N          2.49797        1.74817       -0.06775
H          1.95478        2.58789       -0.18807
H         -0.07824        2.25315        0.13566
H         -5.81606        2.15893        0.18800
H         -6.59800       -2.05863       -0.10315
H         -4.16249       -2.53532       -0.17641
H         -1.54887       -2.49522       -0.19105
H          0.85853       -1.95578       -0.16747
