44
COMP72_020003.log	Energy: -2389746.1604898
C          0.42663       -1.56998       -0.22937
C          1.67818       -0.82718       -0.32764
C          1.89943        0.40588       -0.87888
H          1.12453        1.03951       -1.28618
C          3.26820        0.77238       -0.83325
Cl         3.83534        2.28797       -1.44860
C          4.08995       -0.16042       -0.25566
S          3.15968       -1.53112        0.24984
C          5.53664       -0.11278       -0.06100
S          6.63216       -0.28955       -1.39741
C          8.00469       -0.13792       -0.37337
H          9.00113       -0.17880       -0.79124
C          7.65765        0.03401        0.93188
H          8.36043        0.15406        1.74618
C          6.24389        0.04536        1.10150
Cl         5.50146        0.26151        2.65179
C         -0.87735       -1.14010       -0.07817
C         -1.34561        0.24928        0.14373
O         -0.61560        1.18337        0.41115
C         -2.82460        0.42445        0.04973
C         -3.44798        1.64647        0.00342
C         -2.83146        2.99797       -0.16949
O         -2.03655        3.27497       -1.02889
O         -3.34158        3.86307        0.71316
C         -2.84556        5.20105        0.60669
S         -5.15761        1.48155        0.01549
C         -5.05890       -0.24009        0.01164
C         -6.31389       -1.03121       -0.13142
O         -6.42967       -2.03913       -0.77644
O         -7.31970       -0.41608        0.51082
C         -8.59764       -1.04309        0.37753
C         -3.75276       -0.66566        0.05193
C         -3.27511       -2.07383        0.15130
O         -3.99817       -3.01667        0.39703
C         -1.81226       -2.23102       -0.04664
C         -1.21838       -3.45158       -0.16590
H         -1.71087       -4.41405       -0.15114
S          0.47480       -3.30572       -0.36095
H         -3.35972        5.76371        1.38441
H         -3.06707        5.61334       -0.38044
H         -1.76567        5.21549        0.76894
H         -9.29305       -0.40418        0.91981
H         -8.57325       -2.04428        0.81341
H         -8.87891       -1.11684       -0.67554
