35
COMP59_000100.log	Energy: -1603511.5820901
C         -0.85657       -0.48869        0.00075
C          0.56929       -0.24609        0.00081
C          1.21226        0.97324        0.00315
C          2.61697        0.83955        0.00180
C          3.02504       -0.47422       -0.00141
S          1.71289       -1.57840       -0.00293
C          4.47022       -0.51392       -0.00207
C          4.94861        0.77499        0.00069
C          3.80979        1.78303        0.00359
C          3.83319        2.66044       -1.25857
C          3.83378        2.65367        1.27062
C          6.36687        0.83259       -0.00013
C          6.92306       -0.41657       -0.00355
H          7.97288       -0.67582       -0.00488
S          5.73219       -1.68080       -0.00585
C         -1.54279       -1.67784        0.00336
F         -0.93949       -2.86125        0.00625
N         -2.88740       -1.64616        0.00320
C         -3.29478       -0.40535        0.00011
S         -2.03538        0.78979       -0.00281
C         -4.69317       -0.02143       -0.00053
S         -5.95491       -1.21324        0.00373
C         -7.10962        0.06488        0.00042
H         -8.17495       -0.10730        0.00149
C         -6.44773        1.25472       -0.00356
F         -7.04436        2.43649       -0.00680
N         -5.09611        1.22170       -0.00408
H          0.68303        1.92060        0.00596
H          3.81217        2.04438       -2.16223
H          4.73981        3.27519       -1.27936
H          2.96761        3.33186       -1.27546
H          3.81325        2.03254        2.17081
H          2.96802        3.32477        1.29151
H          4.74028        3.26846        1.29432
H          6.95410        1.74380        0.00163
