48
COMP73_000032.log	Energy: -1409150.0498807
C         -1.07442       -0.91058        0.77675
C         -2.23250       -0.02849        0.50318
C         -3.30347       -0.56876       -0.20966
C         -4.43438        0.19334       -0.50035
C         -5.59305       -0.36540       -1.25486
O         -6.58452        0.26532       -1.54367
O         -5.41872       -1.65529       -1.57937
C         -6.49269       -2.25154       -2.30397
C         -4.49940        1.52059       -0.08693
H         -5.38155        2.10564       -0.32320
C         -3.43727        2.07217        0.61531
C         -2.31266        1.31043        0.92626
C         -1.21626        1.92265        1.73966
O         -0.53231        1.32639        2.53796
O         -1.10537        3.23559        1.50128
C         -0.02232        3.87677        2.16993
C          0.25877       -0.79763        0.45790
C          0.89579        0.35958       -0.21953
O          0.27809        1.36634       -0.53268
C          2.34018        0.20019       -0.47304
C          3.11736        1.14088       -1.09028
O          2.70700        2.32200       -1.54376
C          3.63558        3.15382       -2.21511
S          4.79786        0.62772       -1.21934
C          4.41785       -0.88967       -0.40957
O          5.34058       -1.81932       -0.18315
C          6.68499       -1.54480       -0.53273
C          3.09543       -0.97294       -0.07698
C          2.47437       -2.11151        0.61960
O          3.07755       -3.11146        0.97127
C          1.01878       -1.94617        0.86246
C          0.26339       -2.89510        1.48459
H          0.61213       -3.83889        1.88021
S         -1.37612       -2.41457        1.58421
H         -3.24940       -1.59331       -0.56070
H         -6.19811       -3.28783       -2.46617
H         -6.64051       -1.74094       -3.25868
H         -7.41945       -2.20148       -1.72727
H         -3.47570        3.10715        0.93499
H         -0.10102        4.93217        1.91058
H          0.92544        3.46444        1.81468
H         -0.09573        3.73794        3.25112
H          3.07831        4.04282       -2.50821
H          4.03397        2.65980       -3.10952
H          4.45914        3.44226       -1.55004
H          7.25216       -2.42800       -0.24132
H          7.06278       -0.66999        0.01027
H          6.78714       -1.38580       -1.61346
