33
COMP42_230002.log	Energy: -1979886.3960954
C          2.09187        1.04350        0.31958
C          0.65611        1.14821        0.08941
C         -0.12669        2.26301       -0.09498
Cl         0.45262        3.88532       -0.16001
C         -1.51457        1.96902       -0.24317
C         -2.51436        2.97042       -0.42530
N         -3.32778        3.78210       -0.57627
C         -1.77439        0.61481       -0.16250
S         -0.32523       -0.28183        0.06393
C         -3.06174       -0.05958       -0.28364
S         -4.18332        0.35670       -1.52916
C         -5.31436       -0.82119       -1.00228
H         -6.26300       -0.94536       -1.50456
C         -4.85443       -1.51087        0.07634
Cl        -5.73407       -2.76378        0.86921
C         -3.55634       -1.08359        0.50125
C         -2.87492       -1.63332        1.62811
N         -2.32163       -2.08177        2.54242
C          2.94916        0.02622       -0.00589
C          2.88942       -1.27014       -0.73555
O          1.96990       -1.84345       -1.26455
N          4.20850       -1.74352       -0.66277
O          4.60454       -2.84321       -1.35421
C          4.54745       -4.00947       -0.52660
C          5.13015       -0.90400       -0.00762
O          6.30270       -1.12635        0.14170
C          4.28405        0.23630        0.42803
C          4.46679        1.40125        1.09747
H          5.37534        1.80890        1.51910
S          2.98210        2.26978        1.19925
H          4.85859       -4.82592       -1.17874
H          3.52590       -4.17968       -0.17412
H          5.24107       -3.91576        0.31418
