30
COMP42_210000.log	Energy: -1941530.5406267
C         -2.22796        0.77720       -0.23941
C         -0.80136        1.00263       -0.06337
C         -0.12535        2.17001        0.20562
Cl        -0.82023        3.72276        0.48682
C          1.27662        1.98723        0.25891
F          2.10832        2.99449        0.52071
C          1.69541        0.70609        0.02900
S          0.31912       -0.31518       -0.24291
C          3.05557        0.20843        0.02578
S          4.43443        1.21106        0.38562
C          5.53118       -0.09628        0.16493
H          6.59449        0.04777        0.28989
C          4.88615       -1.24670       -0.16687
Cl         5.64415       -2.76615       -0.46774
C          3.47822       -1.06414       -0.24466
F          2.65044       -2.05833       -0.55536
C         -2.97297       -0.35454       -0.02705
C         -2.77520       -1.72962        0.50784
O         -1.77229       -2.27946        0.90065
N         -4.04657       -2.31932        0.46858
C         -4.31034       -3.67499        0.90028
C         -5.04538       -1.48188       -0.04266
O         -6.20663       -1.78777       -0.17074
C         -4.34307       -0.21324       -0.36015
C         -4.67323        1.00969       -0.84198
H         -5.63977        1.38265       -1.15195
S         -3.27915        2.02276       -0.88872
H         -3.37154       -4.09469        1.26304
H         -4.68738       -4.27099        0.06546
H         -5.05421       -3.67680        1.70059
