36
COMP62_310000.log	Energy: -1289988.4259373
C          2.21303       -0.43743        0.29578
C          0.81703       -0.78947        0.08709
C          0.26471       -1.94609       -0.43135
C          0.98518       -3.07070       -0.92641
N          1.55928       -3.98937       -1.33809
C         -1.14875       -1.84927       -0.51498
F         -1.88975       -2.84623       -0.99400
C         -1.67822       -0.66518       -0.08029
S         -0.39600        0.38006        0.44675
C         -3.07497       -0.28218       -0.04258
S         -4.36381       -1.32494       -0.58160
C         -5.55863       -0.15731       -0.21218
H         -6.60455       -0.36425       -0.38926
C         -5.02297        0.99287        0.30399
C         -5.77542        2.13660        0.70420
N         -6.38890        3.06376        1.02984
C         -3.60372        0.90064        0.39302
F         -2.86284        1.89801        0.86694
C          2.82238        0.74545       -0.01803
C          2.61005        2.02071       -0.70004
O          1.62608        2.55661       -1.16829
N          3.91300        2.59992       -0.70558
C          4.18137        3.90432       -1.27035
C          4.82964        1.77070       -0.10049
H          5.87143        2.05882       -0.04006
C          4.20519        0.64486        0.33494
C          4.43327       -0.66190        0.93845
O          5.40615       -1.18837        1.43311
N          3.14778       -1.28596        0.87030
C          2.91510       -2.55643        1.53069
H          3.24466        4.26848       -1.69541
H          4.93373        3.83802       -2.06168
H          4.52130        4.60420       -0.50098
H          3.66718       -2.65475        2.31552
H          3.01819       -3.39272        0.83584
H          1.91673       -2.57123        1.97452
