40
COMP41_000020.log	Energy: -1431759.7907784
C          2.11578       -0.93236       -0.02203
C          0.71669       -0.53702       -0.00872
C         -0.34658       -1.37089       -0.19131
H         -0.25766       -2.42994       -0.40655
C         -1.61038       -0.70548       -0.09932
C         -2.89333       -1.24975       -0.23172
O         -3.07526       -2.58203       -0.48169
C         -3.09356       -3.38282        0.69491
C         -3.97592       -0.38925       -0.11858
S         -5.66341       -0.82488       -0.25220
C         -6.13166        0.83042        0.04117
H         -7.18401        1.08139        0.06365
C         -5.08899        1.67075        0.22011
H         -5.18883        2.72968        0.42353
C         -3.81751        0.99779        0.12846
C         -2.53547        1.53889        0.26022
O         -2.35053        2.86994        0.51451
C         -2.29127        3.67176       -0.66025
C         -1.44996        0.67842        0.14897
S          0.22945        1.13138        0.27798
C          3.27840       -0.20780       -0.00764
C          3.69508        1.21770        0.02504
O          3.03210        2.22860        0.06847
N          5.09808        1.18746        0.00023
C          5.91955        2.37814        0.01336
C          5.63769       -0.10273       -0.04284
O          6.81789       -0.35999       -0.06982
C          4.45597       -1.00116       -0.04323
C          4.22837       -2.33514       -0.07855
H          4.93959       -3.14876       -0.10997
S          2.52740       -2.63900       -0.06029
H         -3.26316       -4.40909        0.36618
H         -3.90134       -3.07352        1.36862
H         -2.13676       -3.31970        1.22797
H         -2.11904        4.69551       -0.32528
H         -3.23432        3.61936       -1.21843
H         -1.46766        3.35635       -1.31169
H          5.25865        3.23328        0.15908
H          6.45580        2.48285       -0.93359
H          6.64608        2.32128        0.82711
