29
COMP22_020300.log	Energy: -1848404.0992046
C         -1.98294       -0.16426        0.02485
C         -0.54756       -0.42278        0.15372
C          0.05068       -1.45301        0.83519
H         -0.47940       -2.20026        1.41050
C          1.46139       -1.42256        0.72756
Cl         2.47094       -2.58368        1.51734
C          1.94249       -0.38514       -0.03084
S          0.63845        0.58869       -0.61171
C          3.32770       -0.05824       -0.35963
S          4.26963       -1.07023       -1.41009
C          5.63805       -0.03850       -1.27891
H          6.55484       -0.28273       -1.79762
C          5.39958        1.03598       -0.47732
H          6.12205        1.80908       -0.25001
C          4.07489        1.01804        0.04257
Cl         3.48846        2.24758        1.11354
C         -2.49534        1.18047        0.02069
N         -1.75917        2.28726        0.11589
S         -2.78929        3.53833        0.06353
N         -4.20063        2.74920       -0.07362
C         -3.90253        1.44907       -0.08691
C         -4.83753        0.38662       -0.18963
H         -5.89853        0.58953       -0.26731
C         -4.34578       -0.88796       -0.19259
C         -5.27072       -1.98208       -0.30362
N         -6.04070       -2.84264       -0.39274
C         -2.92657       -1.16942       -0.09983
C         -2.53705       -2.54825       -0.17540
N         -2.25693       -3.67070       -0.24205
