30
COMP52_140100.log	Energy: -1749148.8866227
C         -1.01808       -0.16106        0.00151
C          0.36077        0.26577        0.00207
C          0.84304        1.54210        0.00500
F          0.07525        2.64730        0.00781
C          2.25228        1.66338        0.00471
O          2.91021        2.84651        0.00703
C          2.87758        0.44200        0.00150
S          1.69936       -0.85101       -0.00098
C          4.29990        0.18108       -0.00034
S          5.49558        1.46059       -0.00453
C          6.80478        0.33660       -0.00651
H          7.83300        0.66593       -0.00915
C          6.33696       -0.93345       -0.00365
F          7.08362       -2.04984       -0.00354
C          4.91925       -1.04290       -0.00021
O          4.25441       -2.22150        0.00211
C         -1.51930       -1.43965        0.00360
F         -0.74573       -2.51852        0.00622
N         -2.85211       -1.60725        0.00298
C         -3.43651       -0.43794        0.00026
S         -2.37304        0.93121       -0.00260
C         -4.87712       -0.26783       -0.00082
S         -5.94639       -1.63460        0.00089
C         -7.27899       -0.54364       -0.00202
H         -8.30666       -0.87297       -0.00204
C         -6.80187        0.73185       -0.00396
F         -7.56857        1.81107       -0.00662
N         -5.46089        0.90120       -0.00335
H          2.26285        3.56386        0.01012
H          4.89945       -2.94125        0.00466
