48
COMP97_340001.log	Energy: -1545530.4837413
C         -1.72951       -0.25664       -0.18180
C         -0.31230       -0.65439       -0.23659
C          0.32473       -1.64628       -0.95368
O         -0.25317       -2.62706       -1.65211
C          1.75142       -1.51816       -0.94414
C          2.58280       -2.45716       -1.61875
N          3.27901       -3.21073       -2.16014
C          2.20461       -0.43550       -0.21209
S          0.86730        0.42447        0.46104
C          3.53894        0.04420        0.09538
C          4.68802       -0.47949       -0.37582
C          6.01968        0.00944       -0.07462
C          6.46286        1.03590        0.74685
C          5.65519        1.89377        1.54150
N          5.06736        2.63403        2.21689
C          7.89072        1.18343        0.74945
O          8.56425        2.10538        1.46478
C          8.50758        0.27522       -0.06146
H          9.56840        0.17183       -0.23381
S          7.36789       -0.75888       -0.82680
C         -1.97825        1.10077       -0.54293
C         -3.22901        1.64743       -0.53071
C         -3.40698        3.06379       -0.96052
O         -2.49762        3.77070       -1.33661
N         -4.71083        3.53595       -0.89979
H         -4.84807        4.49754       -1.19033
C         -5.85224        2.85836       -0.48764
O         -6.93515        3.40266       -0.48357
C         -5.63868        1.44713       -0.06191
C         -6.71070        0.70933        0.38621
H         -7.69248        1.16877        0.41721
C         -6.51008       -0.61153        0.81255
C         -5.25651       -1.18371        0.76032
C         -5.09374       -2.56544        1.26364
O         -5.98741       -3.24600        1.71797
N         -3.79651       -3.05582        1.17543
H         -3.66653       -4.02074        1.45936
C         -2.68919       -2.45876        0.61074
O         -1.67331       -3.13210        0.48461
C         -2.82458       -1.03892        0.20605
C         -4.13411       -0.46101        0.27589
C         -4.34298        0.88121       -0.11179
H         -0.92812       -3.01749       -1.05744
H          3.57149        0.90536        0.75694
H          4.65520       -1.33461       -1.04423
H          7.94467        2.64999        1.97021
H         -1.15530        1.72398       -0.87612
H         -7.33237       -1.20475        1.19803
