37
COMP59_000220.log	Energy: -2150132.8247837
C          0.84400       -0.83033        0.07109
C         -0.58568       -0.58678        0.06295
C         -1.20080        0.63535        0.25126
C         -2.60208        0.55102        0.15215
C         -3.03939       -0.71656       -0.13876
S         -1.76248       -1.84588       -0.26431
C         -4.48408       -0.70645       -0.28452
C         -4.95149        0.56681       -0.08447
C         -3.78891        1.51742        0.21757
O         -4.04736        2.07174        1.47692
C         -2.98515        2.82194        2.03556
O         -3.54702        2.50206       -0.74855
C         -4.62793        3.38049       -0.99856
C         -6.36525        0.65034       -0.13870
C         -6.92880       -0.56732       -0.40568
H         -7.97802       -0.80255       -0.51928
S         -5.74882       -1.82790       -0.57070
C          1.58734       -1.97815        0.23548
Cl         0.92526       -3.55577        0.47986
N          2.93793       -1.85695        0.21213
C          3.27505       -0.61301        0.02581
S          1.95382        0.49400       -0.15057
C          4.65354       -0.15968       -0.03504
S          5.97733       -1.27112        0.12679
C          7.05819        0.05451       -0.06024
H          8.13093       -0.06694       -0.03986
C          6.34248        1.20267       -0.22615
Cl         7.05418        2.76251       -0.44641
N          4.98776        1.08869       -0.21322
H         -0.65316        1.54873        0.45347
H         -3.40354        3.35384        2.89155
H         -2.58385        3.54516        1.31637
H         -2.17836        2.16459        2.38369
H         -5.03625        3.78993       -0.06746
H         -5.42697        2.87552       -1.55597
H         -4.22745        4.19252       -1.60764
H         -6.94220        1.55300        0.01913
