50
COMP61_400003.log	Energy: -1477874.7862730
C         -1.52175        0.96052        0.01797
C         -0.16597        0.52604       -0.09713
C          0.37430       -0.64899        0.40067
O         -0.28392       -1.59661        1.05578
C          1.81517       -0.72848        0.22520
C          2.69865       -1.74577        0.62438
C          2.30856       -2.99625        1.36655
C          4.03661       -1.54188        0.29238
S          5.31330       -2.67358        0.69212
C          6.49488       -1.64169       -0.06220
H          7.53664       -1.93532       -0.07682
C          5.96428       -0.51200       -0.58515
O          6.65352        0.46742       -1.22782
C          4.52672       -0.40805       -0.40391
C          3.64262        0.60478       -0.80686
C          4.03374        1.84953       -1.55900
C          2.30861        0.40525       -0.46352
S          1.04342        1.53581       -0.88667
C         -2.69259        0.23332        0.04270
C         -3.16256       -1.11484       -0.09581
O         -2.55268       -2.18148       -0.10320
N         -4.58250       -0.96253       -0.20472
C         -5.57504       -1.94859       -0.34707
O         -6.74519       -1.66636       -0.43789
O         -5.06023       -3.16610       -0.36764
C         -6.01588       -4.21944       -0.52104
C         -4.94076        0.39584       -0.17788
H         -5.97549        0.67105       -0.31276
C         -3.81672        1.11893       -0.01103
C         -3.32396        2.49687       -0.01593
O         -3.87922        3.56122        0.02225
N         -1.88412        2.31870       -0.01158
C         -1.05700        3.41663        0.36577
O         -1.02370        4.45689       -0.22725
O         -0.39072        3.11875        1.47955
C          0.57695        4.09261        1.87883
H         -1.15740       -1.83102        0.62831
H          1.23903       -3.04556        1.55210
H          2.83204       -3.04080        2.32952
H          2.60666       -3.88307        0.79382
H          7.58695        0.22573       -1.25779
H          5.10322        1.89652       -1.74996
H          3.74500        2.74418       -0.99277
H          3.50912        1.89308       -2.52157
H         -5.43258       -5.13823       -0.49583
H         -6.53894       -4.12008       -1.47463
H         -6.74157       -4.19829        0.29460
H          1.01859        3.70135        2.79379
H          0.09411        5.05513        2.05808
H          1.33743        4.20068        1.10115
