27
COMP12_400000.log	Energy: -1228106.9340754
C         -2.35733        0.67278       -0.16930
C         -1.05288        0.07472       -0.19398
C         -0.67581       -1.22780       -0.49646
O         -1.43932       -2.26739       -0.83937
C          0.73650       -1.41150       -0.46012
H          1.19908       -2.36194       -0.69685
C          1.42455       -0.27404       -0.14738
S          0.35405        1.06034        0.14102
C          2.86308       -0.10183       -0.02575
S          3.88078       -1.44605        0.39043
C          5.29880       -0.46341        0.30677
H          6.27346       -0.89117        0.49830
C          4.99071        0.83002       -0.00972
O          5.84982        1.86903       -0.15798
C          3.59469        1.04075       -0.20196
H          3.17592        1.99907       -0.48523
C         -2.77102        1.93704       -0.37841
C         -4.21962        2.13952       -0.22021
C         -4.92066        1.05240        0.11460
H         -5.98226        0.91596        0.26109
S         -3.80212       -0.30361        0.31855
O         -4.03644       -1.33860       -0.70320
O         -3.70279       -0.71499        1.71048
H         -2.39136       -2.04062       -0.88968
H          6.75091        1.56084       -0.00625
H         -2.10995        2.74267       -0.67573
H         -4.67533        3.10794       -0.39358
