33
COMP27_230000.log	Energy: -1896961.3406063
C          3.42922       -0.91747       -0.48293
C          2.10787       -0.28564       -0.38503
C          1.78227        1.04673       -0.50340
C          2.73157        2.07190       -0.79609
N          3.49591        2.90073       -1.06308
C          0.37691        1.28472       -0.37412
Cl        -0.25410        2.89062       -0.46233
C         -0.36594        0.14920       -0.16089
S          0.69673       -1.22938       -0.10529
C         -1.78652       -0.09691        0.03950
C         -2.78851        0.75553       -0.23892
C         -4.20870        0.50305       -0.03641
C         -4.94705       -0.64048        0.15051
Cl        -4.31860       -2.24918        0.17745
C         -6.35334       -0.40136        0.29295
C         -7.32937       -1.42450        0.49327
N         -8.13029       -2.24591        0.65578
C         -6.66421        0.92890        0.20769
H         -7.64600        1.37398        0.28467
S         -5.27201        1.88488       -0.04125
C          4.53273       -0.43234        0.29440
N          4.49524        0.56352        1.17877
S          6.00044        0.70584        1.76961
N          6.75160       -0.48362        0.95742
C          5.82900       -1.04360        0.17100
C          6.02701       -2.14655       -0.70769
H          7.00948       -2.59643       -0.79296
C          4.95210       -2.60120       -1.41350
H          5.06589       -3.43949       -2.09301
C          3.66498       -1.99127       -1.30279
H          2.85476       -2.37868       -1.91378
H         -2.02261       -1.07381        0.44829
H         -2.55553        1.73338       -0.64649
