56
COMP87_220002.log	Energy: -2587500.5873645
C         -0.50383       -0.67637       -0.21230
C          0.94895       -0.90046       -0.26133
C          1.65556       -2.05353       -0.48141
Cl         0.93288       -3.58838       -0.81826
C          3.07266       -1.87133       -0.46512
Cl         4.14846       -3.19541       -0.73800
C          3.45805       -0.57216       -0.22969
S          2.04270        0.41728       -0.02423
C          4.74432        0.09733       -0.11801
C          5.96261       -0.46961       -0.19263
C          7.24197        0.21539       -0.08105
C          7.61618        1.46345        0.36136
Cl         6.54369        2.66261        0.99016
C          9.02685        1.68960        0.28782
Cl         9.78230        3.16377        0.77554
C          9.71306        0.62244       -0.20191
H         10.77922        0.54243       -0.35563
S          8.65440       -0.67240       -0.58024
C         -1.07235        0.42343       -0.86334
C         -2.44361        0.66974       -0.82548
C         -3.28241       -0.19472       -0.12324
C         -4.74210       -0.30556        0.09310
C         -4.93721       -1.64087        0.79951
O         -5.94134       -2.26242        1.07585
N         -3.66535       -2.07069        1.10630
O         -3.41013       -3.28545        1.66866
C         -3.49366       -4.32695        0.68817
C         -2.67904       -1.30257        0.50403
C         -1.32643       -1.56005        0.49926
C         -5.76398        0.56335       -0.14308
C         -5.53561        2.00155       -0.59525
O         -4.54170        2.56511       -1.00135
N         -6.74466        2.63449       -0.40080
O         -7.00101        3.85839       -0.95705
C         -6.60243        4.89807       -0.06215
C         -7.77510        1.73594       -0.13961
C         -9.12510        2.01490       -0.07922
C         -9.98180        0.94730        0.18841
H        -11.05167        1.12403        0.24430
C         -9.47958       -0.33755        0.37447
C         -8.11082       -0.59592        0.30541
C         -7.22472        0.45363        0.05432
H          4.67462        1.16873        0.03754
H          6.04144       -1.53687       -0.36655
H         -0.43800        1.08969       -1.43958
H         -2.85454        1.52154       -1.34384
H         -3.23962       -5.23992        1.22762
H         -2.77152       -4.15530       -0.11787
H         -4.50974       -4.39582        0.29057
H         -0.92539       -2.41345        1.03208
H         -6.88441        5.82402       -0.56525
H         -5.52095        4.87110        0.09516
H         -7.13078        4.81012        0.89304
H         -9.48997        3.02079       -0.25137
H        -10.16110       -1.15836        0.57248
H         -7.73483       -1.59717        0.44502
