48
COMP61_000003.log	Energy: -1383501.5738535
C          1.33017        0.93830        0.16830
C         -0.09716        0.71734        0.16479
C         -0.65974       -0.49130        0.46386
H         -0.06747       -1.33252        0.80095
C         -2.07157       -0.53761        0.24410
C         -2.93764       -1.62520        0.44587
C         -2.45690       -2.95382        0.96142
C         -4.27509       -1.39069        0.15313
S         -5.56612       -2.56544        0.32881
C         -6.73237       -1.41085       -0.24697
H         -7.77196       -1.70061       -0.32489
C         -6.19861       -0.20871       -0.55225
H         -6.79145        0.61797       -0.92363
C         -4.77223       -0.14929       -0.33258
C         -3.90371        0.93119       -0.54278
C         -4.35260        2.27111       -1.05882
C         -2.56405        0.69860       -0.24556
S         -1.28612        1.87853       -0.40920
C          2.31289       -0.01613        0.12706
C          2.49832       -1.46066        0.07821
O          1.73132       -2.38693        0.21731
N          3.92853       -1.58451       -0.14946
C          4.70945       -2.74420       -0.27138
O          5.90460       -2.69567       -0.44273
O          3.98031       -3.84422       -0.18014
C          4.71586       -5.06447       -0.29697
C          4.53366       -0.32681       -0.23406
H          5.59306       -0.25896       -0.43107
C          3.58596        0.61354       -0.05571
C          3.40173        2.05950       -0.09121
O          4.18436        2.96939       -0.15816
N          1.95634        2.19907        0.04204
C          1.37740        3.40793        0.49754
O          0.56036        3.46522        1.38135
O          1.86618        4.43300       -0.18134
C          1.44752        5.71929        0.28040
H         -1.38891       -3.09852        0.78332
H         -2.98646       -3.77802        0.47130
H         -2.63554       -3.04311        2.03971
H         -5.43386        2.32284       -1.19695
H         -3.88172        2.49446       -2.02382
H         -4.06764        3.06931       -0.36289
H          3.97366       -5.85343       -0.18781
H          5.47115       -5.13175        0.48897
H          5.20270       -5.12493       -1.27278
H          2.00135        6.43374       -0.32615
H          1.68859        5.84268        1.33833
H          0.37153        5.84087        0.13700
