30
COMP52_240200.log	Energy: -2653699.5742862
C         -0.97643       -0.11920        0.50252
C          0.40044        0.34954        0.43656
C          0.88922        1.59902        0.70680
Cl        -0.05037        2.94160        1.27725
C          2.29055        1.73040        0.50521
O          3.00174        2.85932        0.71632
C          2.87590        0.56542        0.06977
S          1.68084       -0.69112       -0.09433
C          4.27794        0.34630       -0.21805
S          5.48607        1.59591       -0.04229
C          6.74643        0.54462       -0.55051
H          7.76898        0.88746       -0.61366
C          6.26827       -0.69382       -0.83790
Cl         7.22395       -2.03940       -1.38103
C          4.85965       -0.82014       -0.65257
O          4.14590       -1.94474       -0.87246
C         -1.51425       -1.16434        1.21381
Cl        -0.61665       -2.17323        2.28887
N         -2.84278       -1.39319        1.06903
C         -3.35631       -0.52622        0.23993
S         -2.24710        0.62019       -0.42505
C         -4.76861       -0.50332       -0.10632
S         -5.87922       -1.65797        0.55928
C         -7.13734       -0.90067       -0.33567
H         -8.16080       -1.24293       -0.29792
C         -6.62277        0.14077       -1.04961
Cl        -7.56084        1.16169       -2.08118
N         -5.28871        0.36912       -0.92463
H          2.41179        3.55685        1.03531
H          4.74031       -2.65329       -1.15754
