38
COMP67_100000.log	Energy: -1222830.3619894
C         -2.64026        0.62513       -0.00777
C         -1.24642        0.25107       -0.01141
C         -0.80825       -1.05709       -0.01638
H         -1.47554       -1.91496       -0.01910
C          0.59303       -1.13883       -0.01532
F          1.22413       -2.31844       -0.01931
C          1.26458        0.06295       -0.00919
S          0.10610        1.35224       -0.00556
C          2.68179        0.36386       -0.00413
C          3.66023       -0.56380       -0.00562
C          5.08050       -0.27410        0.00147
C          5.75762        0.92016        0.01352
F          5.14091        2.10882        0.02053
C          7.17084        0.82338        0.01846
H          7.83071        1.68124        0.02764
C          7.57464       -0.47868        0.00993
H          8.58703       -0.85740        0.01103
S          6.24412       -1.56913       -0.00400
C         -3.71848       -0.23561       -0.00293
C         -4.08209       -1.63953        0.00158
O         -3.43357       -2.67727       -0.00196
N         -5.50363       -1.60912        0.01104
C         -6.30572       -2.81180        0.02569
C         -5.97762       -0.31601        0.01329
H         -7.04185       -0.12075        0.02169
C         -4.92091        0.53790        0.00379
C         -4.56374        1.94607        0.00093
O         -5.21817        2.96738        0.00325
N         -3.13291        1.92487       -0.00635
C         -2.39780        3.17064       -0.01223
H          2.94528        1.41648        0.00222
H          3.39200       -1.61530       -0.01231
H         -5.61593       -3.65609       -0.01977
H         -6.97515       -2.84517       -0.83922
H         -6.89510       -2.87957        0.94549
H         -3.14803        3.96361       -0.01254
H         -1.77962        3.26681       -0.90978
H         -1.77468        3.27269        0.88126
