50
COMP82_000000.log	Energy: -1291110.6012336
C         -1.43707        0.42115       -0.20488
C         -2.90040        0.51733       -0.25430
C         -3.66522        1.52254       -0.78657
H         -3.23841        2.39046       -1.27615
C         -5.06100        1.30102       -0.65933
H         -5.81652        1.99552       -1.00952
C         -5.36475        0.12158       -0.02981
S         -3.91538       -0.73070        0.40573
C         -6.67314       -0.43629        0.27836
S         -8.06338       -0.03424       -0.68618
C         -9.09162       -1.01888        0.28512
H        -10.14696       -1.08900        0.06061
C         -8.40144       -1.63667        1.28494
H         -8.86083       -2.30203        2.00619
C         -7.01765       -1.30279        1.28327
H         -6.30518       -1.67221        2.01250
C         -0.78498       -0.81624       -0.20760
C          0.60327       -0.91508       -0.17771
C          1.38404        0.24043       -0.15641
C          2.82659        0.53182       -0.05914
C          2.90709        2.04888        0.02045
O          3.88102        2.77570        0.08346
N          1.61742        2.52250       -0.04745
C          1.28163        3.92380       -0.02225
C          0.70611        1.47808       -0.13278
C         -0.66887        1.59504       -0.15514
C          3.92730       -0.27317       -0.06197
C          3.86861       -1.75129       -0.41761
O          2.91716       -2.43529       -0.74814
N          5.15551       -2.22851       -0.35667
C          5.51303       -3.59378       -0.64851
C          6.04190       -1.22903        0.02675
C          7.40252       -1.37182        0.23289
C          8.11510       -0.24761        0.65025
H          9.18496       -0.32753        0.81832
C          7.46569        0.96445        0.85667
C          6.09328        1.09302        0.64022
C          5.35568       -0.00915        0.20596
H         -1.36866       -1.73029       -0.26188
H          1.07429       -1.88502       -0.19784
H          2.21600        4.48413        0.02161
H          0.67248        4.16132        0.85682
H          0.73084        4.20297       -0.92676
H         -1.14739        2.56701       -0.09938
H          4.60066       -4.11867       -0.93308
H          5.95187       -4.07522        0.23221
H          6.23118       -3.63517       -1.47429
H          7.89602       -2.32605        0.08065
H          8.02994        1.83054        1.18729
H          5.60565        2.04300        0.79106
