63
COMP76_000033.log	Energy: -1720214.1956085
C          0.18859       -1.20622       -0.71298
C         -1.01618       -0.36214       -0.79555
C         -2.20325       -0.79483       -0.19023
C         -3.33874       -0.01599       -0.30979
C         -4.72776       -0.26857        0.25718
C         -5.30776       -1.57327       -0.30281
O         -6.17780       -1.66610       -1.12725
O         -4.67705       -2.62231        0.24839
C         -5.09836       -3.90549       -0.21516
C         -4.71964       -0.34406        1.78918
O         -3.78154       -0.10963        2.50341
O         -5.93611       -0.69524        2.23397
C         -6.06753       -0.77721        3.65375
C         -5.49598        0.95635       -0.22008
C         -6.82782        1.27749       -0.01899
C         -7.31223        2.46815       -0.55965
H         -8.35398        2.73730       -0.41479
C         -6.47451        3.31234       -1.28864
C         -5.13682        2.98361       -1.49494
C         -4.65224        1.79738       -0.95608
C         -3.31691        1.19071       -1.01571
C         -2.14137        1.62474       -1.61977
C         -0.99891        0.84377       -1.51016
C          1.50500       -0.89543       -0.44871
C          2.03488        0.43077       -0.05012
O          1.34046        1.37769        0.26045
C          3.52731        0.51122       -0.00976
C          4.23420        1.67791        0.13920
C          3.74107        3.08618        0.06738
O          3.02542        3.51430       -0.79974
O          4.26818        3.81833        1.05637
C          3.90390        5.20119        1.04646
S          5.92092        1.37658        0.29013
C          5.70549       -0.31936        0.07686
C          6.90969       -1.19257       -0.03630
O          7.05988       -2.06090       -0.85416
O          7.83422       -0.82230        0.86292
C          9.06427       -1.54798        0.79917
C          4.37641       -0.64173       -0.05114
C          3.80969       -2.01598       -0.15858
O          4.46223       -3.02493        0.01782
C          2.36094       -2.05050       -0.46869
C          1.69307       -3.20645       -0.74370
H          2.11838       -4.19903       -0.79946
S          0.02760       -2.91183       -1.00925
H         -2.22715       -1.71411        0.38562
H         -4.50242       -4.62692        0.34249
H         -4.91496       -4.00290       -1.28768
H         -6.16296       -4.05060       -0.01847
H         -7.09902       -1.07668        3.83518
H         -5.86290        0.19298        4.11213
H         -5.37371       -1.51846        4.05690
H         -7.47709        0.61523        0.54278
H         -6.87099        4.23417       -1.70363
H         -4.48916        3.64026       -2.06844
H         -2.10844        2.55993       -2.17017
H         -0.07798        1.17285       -1.97761
H          4.41595        5.64326        1.89986
H          2.82181        5.30680        1.14934
H          4.22495        5.67360        0.11511
H          9.69122       -1.12892        1.58496
H          9.53329       -1.41917       -0.17924
H          8.88470       -2.61096        0.97379
