31
COMP23_000020.log	Energy: -752088.8305385
C         -0.56812        0.71932        0.40682
C          0.85709        0.36894        0.19020
C          1.27946       -0.94424        0.42332
C          2.60600       -1.32172        0.23742
O          3.08460       -2.58023        0.43737
C          2.15618       -3.58608        0.77134
C          3.53090       -0.36867       -0.18124
H          4.56441       -0.66580       -0.32447
C          3.13055        0.93853       -0.41699
C          1.79907        1.32054       -0.23775
O          1.34508        2.58521       -0.46842
C          2.24546        3.52851       -0.99828
C         -1.62397       -0.13781       -0.06581
N         -1.47581       -1.27577       -0.74850
S         -2.97173       -1.84031       -1.04669
N         -3.86874       -0.68533       -0.33470
C         -3.00797        0.20051        0.17020
C         -3.35432        1.38622        0.87783
H         -4.39755        1.62509        1.04963
C         -2.33398        2.17815        1.31087
H         -2.55403        3.09197        1.85453
C         -0.96283        1.84803        1.07712
H         -0.20382        2.52687        1.44748
H          0.54055       -1.66598        0.74506
H          2.72419       -4.51585        0.82551
H          1.37380       -3.68134        0.00715
H          1.68517       -3.39641        1.74511
H          3.87132        1.65702       -0.74718
H          1.66771        4.44059       -1.15406
H          2.66060        3.19559       -1.95840
H          3.06860        3.73972       -0.30289
