37
COMP47_220003.log	Energy: -2560641.9649551
C          2.83173       -1.44461       -0.12003
C          1.39606       -1.64070        0.00918
C          0.67525       -2.79872        0.21800
Cl         1.34772       -4.37234        0.43105
C         -0.73160       -2.59400        0.25788
Cl        -1.85720       -3.87616        0.51731
C         -1.09725       -1.28260        0.08140
S          0.30279       -0.28952       -0.13498
C         -2.44596       -0.75055        0.07752
C         -2.74321        0.56123        0.04738
C         -4.06454        1.16495        0.02668
C         -5.33014        0.65573       -0.15754
Cl        -5.70370       -1.00201       -0.45533
C         -6.35215        1.65480       -0.10475
Cl        -8.03163        1.31083       -0.30657
C         -5.86423        2.90554        0.11566
H         -6.42679        3.82399        0.19831
S         -4.15620        2.88774        0.26183
C          3.57152       -0.28064       -0.13712
C          3.33178        1.17776       -0.02350
O          2.29695        1.78879        0.05986
N          4.62635        1.76957       -0.09451
C          4.88149        3.16564       -0.07615
O          5.70785        3.69628       -0.76576
O          4.09904        3.76177        0.81483
C          4.22034        5.18563        0.86157
C          5.66944        0.81301       -0.28292
O          6.84350        1.04886       -0.35529
C          4.96132       -0.48390       -0.30778
C          5.32506       -1.78316       -0.43119
H          6.31155       -2.20576       -0.56314
S          3.93716       -2.79415       -0.33354
H         -3.23035       -1.49696        0.10985
H         -1.92629        1.28236        0.05158
H          3.48536        5.51239        1.59520
H          4.00674        5.61895       -0.11801
H          5.22900        5.46919        1.17013
