28
COMP32_030000.log	Energy: -1202857.9746462
C         -2.22826        0.11018       -0.11590
C         -0.78921        0.40716       -0.15105
C         -0.19855        1.64263       -0.18062
H         -0.74237        2.57569       -0.21087
C          1.22140        1.57876       -0.15405
C          2.04196        2.74888       -0.15882
N          2.68938        3.71061       -0.16775
C          1.70852        0.28611       -0.09315
S          0.41121       -0.84793       -0.10027
C          3.09568       -0.16136       -0.07155
S          4.28478        0.54186       -1.11033
C          5.51945       -0.48999       -0.50770
H          6.52870       -0.40196       -0.88532
C          5.05563       -1.34568        0.44294
H          5.66384       -2.07552        0.96156
C          3.66260       -1.16251        0.69664
C          2.95066       -1.92169        1.67607
N          2.39323       -2.55082        2.47471
C         -2.75817       -1.08308       -0.61808
F         -1.94596       -2.00409       -1.14496
C         -4.11895       -1.35295       -0.58361
F         -4.55699       -2.50810       -1.08081
C         -5.01131       -0.44026       -0.04909
H         -6.07357       -0.64908       -0.02257
C         -4.50750        0.74634        0.45480
F         -5.32953        1.65058        0.98464
C         -3.14624        1.01805        0.42668
F         -2.73162        2.17781        0.94081
