37
COMP21_300200.log	Energy: -1945565.1023410
C          2.24961       -0.18261        0.10925
C          0.77574       -0.18436        0.04627
C          0.01119        0.66394       -0.70062
C          0.65146        1.62019       -1.54591
N          1.22126        2.37865       -2.21335
C         -1.41893        0.47564       -0.51445
C         -2.50357        1.13996       -1.10485
C         -2.39727        2.25061       -2.11578
C         -3.76345        0.71274       -0.69081
S         -5.25668        1.40848       -1.29216
C         -6.18772        0.34960       -0.30662
H         -7.26845        0.39630       -0.32356
C         -5.43619       -0.49727        0.44794
C         -6.07824       -1.43282        1.31565
N         -6.63721       -2.17761        2.00734
C         -4.00254       -0.31845        0.25364
C         -2.91747       -0.98706        0.83862
C         -3.02286       -2.10055        1.84664
C         -1.65753       -0.55666        0.42786
S         -0.16784       -1.24732        1.03495
C          2.90403        0.87937        0.81149
N          2.29611        1.88174        1.44463
S          3.47907        2.81345        2.05504
N          4.79076        1.99278        1.55777
C          4.33401        0.94067        0.87666
C          5.12244       -0.06174        0.25135
H          6.20334       -0.01685        0.30245
C          4.48363       -1.06732       -0.40986
Cl         5.43918       -2.29330       -1.17925
C          3.04133       -1.13011       -0.48919
Cl         2.30378       -2.41455       -1.38508
H         -1.37299        2.46664       -2.41224
H         -2.82744        3.17513       -1.71231
H         -2.95704        1.99503       -3.02331
H         -4.04991       -2.35502        2.10025
H         -2.51091       -1.82463        2.77627
H         -2.54212       -3.00820        1.46248
