60
COMP83_000032.log	Energy: -1123788.2233162
C          1.93804       -0.41108       -0.13211
C          3.40998       -0.61412       -0.09326
C          4.20395        0.34512        0.53794
C          5.57975        0.16783        0.66943
C          6.45029        1.18141        1.33401
O          7.64518        1.05977        1.47882
O          5.76164        2.25352        1.75432
C          6.53882        3.26048        2.40073
C          6.18201       -0.99362        0.18726
H          7.25109       -1.12579        0.31166
C          5.40630       -1.95483       -0.44111
C          4.03435       -1.76296       -0.60904
C          3.30133       -2.82710       -1.36756
O          3.50817       -4.01163       -1.23725
O          2.42950       -2.31086       -2.23877
C          1.62311       -3.25706       -2.93806
C          1.06967       -1.40295        0.33509
C         -0.31134       -1.23241        0.32754
C         -0.85622       -0.03453       -0.13948
C         -2.22350        0.47521       -0.36771
C         -2.03550        1.79325       -1.10649
O         -2.83584        2.55374       -1.60723
N         -0.67833        2.04292       -1.05226
O         -0.09705        2.99094       -1.84969
C         -0.09451        4.25631       -1.18749
C          0.04383        0.94321       -0.60300
C          1.41461        0.79426       -0.60998
C         -3.44336        0.02012        0.03159
C         -3.61266       -1.10376        1.04522
O         -2.81399       -1.88415        1.51775
N         -4.93818       -1.04543        1.42616
O         -5.52527       -2.08211        2.10122
C         -5.37667       -1.89738        3.50956
C         -5.68894       -0.21840        0.59569
C         -7.06283       -0.08883        0.57059
C         -7.59870        0.79610       -0.36492
H         -8.67542        0.92565       -0.41973
C         -6.77053        1.50240       -1.23300
C         -5.38439        1.35214       -1.19160
C         -4.81570        0.48630       -0.25578
H          3.73645        1.23033        0.95479
H          5.83140        4.03886        2.68457
H          7.29438        3.65701        1.71818
H          7.03564        2.85212        3.28390
H          5.85586       -2.86475       -0.82441
H          0.97883       -2.66529       -3.58690
H          1.02395       -3.83869       -2.23283
H          2.24686       -3.93474       -3.52553
H          1.48175       -2.33150        0.71975
H         -0.95760       -2.01739        0.68823
H          0.43288        4.92717       -1.86712
H          0.43763        4.19155       -0.23240
H         -1.11818        4.60703       -1.03200
H          2.05392        1.57179       -1.01307
H         -5.89366       -2.74619        3.95948
H         -5.84211       -0.95871        3.82872
H         -4.31909       -1.91417        3.78591
H         -7.68539       -0.67155        1.23946
H         -7.20483        2.17906       -1.96169
H         -4.75462        1.90143       -1.87389
