32
COMP57_010000.log	Energy: -1578829.5756902
C         -2.02533       -0.23813       -0.01158
C         -0.62375        0.11483       -0.08001
C         -0.05662        1.35249       -0.23901
F         -0.78737        2.46397       -0.36635
C          1.35393        1.38383       -0.27636
H          1.92131        2.29343       -0.42570
C          1.89366        0.13126       -0.13157
S          0.64416       -1.06906        0.03667
C          3.28667       -0.27960       -0.09783
C          4.31897        0.56576        0.06559
C          5.71846        0.17340        0.05223
C          6.29368       -1.01154       -0.33223
H          5.75573       -1.86275       -0.72992
C          7.70146       -0.98696       -0.17269
F          8.46138       -2.03725       -0.48960
C          8.20377        0.18166        0.31256
H          9.23661        0.42798        0.50775
S          6.92752        1.30114        0.59484
C         -2.57742       -1.48444        0.15920
H         -2.00964       -2.40149        0.26941
N         -3.93758       -1.54464        0.19038
C         -4.45021       -0.35453        0.04545
S         -3.30204        0.93532       -0.14181
C         -5.87846       -0.08336        0.03571
S         -7.04327       -1.36055        0.22933
C         -8.29088       -0.18137        0.09484
H         -9.33519       -0.45306        0.15278
C         -7.75035        1.05714       -0.08119
H         -8.31528        1.97418       -0.19315
N         -6.38312        1.10915       -0.11422
H          3.47974       -1.34485       -0.20611
H          4.11828        1.62235        0.23197
