33
COMP42_000003.log	Energy: -1358536.0780970
C         -0.41917        1.13438       -0.01260
C          0.82097        0.39054        0.05962
C          0.97755       -0.96205        0.24963
H          0.13530       -1.63310        0.36923
C          2.33462       -1.36193        0.28278
H          2.65362       -2.38470        0.44791
C          3.21642       -0.32320        0.11753
S          2.36889        1.17481       -0.10296
C          4.66997       -0.35585        0.10146
S          5.52335       -1.78569       -0.39755
C          7.04931       -1.03469       -0.12737
H          7.96357       -1.58281       -0.30863
C          6.91176        0.24968        0.30949
H          7.75005        0.89624        0.53937
C          5.55012        0.63942        0.44164
H          5.23099        1.61238        0.79883
C         -1.72547        0.70302        0.01601
C         -2.44857       -0.57899        0.13335
O         -2.03465       -1.69917        0.30195
N         -3.83037       -0.22391        0.05952
C         -4.90956       -1.13633        0.17800
O         -5.92237       -0.89182        0.77420
O         -4.63418       -2.25938       -0.47437
C         -5.62226       -3.28426       -0.34644
C         -4.04307        1.18301       -0.06539
O         -5.10506        1.73223       -0.16941
C         -2.67698        1.74878       -0.09000
C         -2.14137        2.98824       -0.20114
H         -2.63870        3.94323       -0.29532
S         -0.41792        2.87908       -0.17071
H         -5.21052       -4.14695       -0.86758
H         -6.56053       -2.96509       -0.80570
H         -5.79575       -3.51627        0.70668
