44
COMP77_240000.log	Energy: -2296122.6574657
C          1.58253       -0.91122       -0.65672
C          0.34387       -0.16207       -0.55915
C          0.03874        1.11490       -0.99301
O          0.87737        2.01566       -1.49550
C         -1.36276        1.38901       -0.90535
Cl        -1.99947        2.91982       -1.38731
C         -2.12181        0.35775       -0.41659
S         -1.10419       -0.99448       -0.02860
C         -3.55224        0.36335       -0.18973
C         -4.25552       -0.68880        0.26787
C         -5.68230       -0.75354        0.52493
C         -6.71385        0.14052        0.36379
Cl        -6.58395        1.75631       -0.26199
C         -7.99689       -0.35669        0.75773
O         -9.14712        0.34329        0.68691
C         -7.92799       -1.63763        1.22013
H         -8.74683       -2.24337        1.57831
S         -6.31617       -2.23608        1.17472
C          2.91215       -0.60083       -0.39701
C          3.44025        0.66346        0.13371
O          2.75314        1.68121        0.27286
C          4.86356        0.66425        0.50485
C          5.50615        1.73884        1.07157
C          4.96411        3.07876        1.45928
S          7.17461        1.35981        1.31885
C          7.03108       -0.23222        0.65744
C          8.21208       -1.14676        0.56893
C          5.73696       -0.45670        0.26806
C          5.24772       -1.70856       -0.33164
O          5.96082       -2.67231       -0.56404
C          3.79023       -1.72440       -0.60977
C          3.14172       -2.84326       -1.02857
H          3.58902       -3.80590       -1.23502
S          1.45871       -2.57270       -1.18369
H          1.69430        1.98410       -0.94048
H         -4.04149        1.30254       -0.41861
H         -3.72488       -1.61589        0.48274
H         -8.95988        1.22210        0.32804
H          4.13485        2.96692        2.16302
H          4.56495        3.59495        0.58187
H          5.73623        3.70246        1.91722
H          9.10607       -0.68944        1.00060
H          8.41325       -1.40360       -0.47502
H          8.00472       -2.08600        1.08862
