42
COMP62_140003.log	Energy: -1505209.5337134
C         -1.17977        0.89333        0.18368
C          0.08163        0.21731        0.35565
C          0.30648       -0.88168        1.13384
F         -0.58305       -1.44231        1.95144
C          1.62109       -1.40159        1.06252
O          2.04693       -2.47546        1.76611
C          2.42365       -0.68460        0.20936
S          1.53426        0.63742       -0.50794
C          3.80825       -0.94140       -0.11668
S          4.69076       -2.31393        0.51816
C          6.12343       -1.87659       -0.33581
H          7.02708       -2.46286       -0.26080
C          5.92402       -0.74575       -1.05287
F          6.83178       -0.13164       -1.82756
C          4.61639       -0.19922       -0.94092
O          4.21061        0.92492       -1.57437
C         -2.41310        0.33333        0.05631
C         -3.05166       -0.97460       -0.04653
O         -2.62637       -2.09353        0.08525
N         -4.42722       -0.61270       -0.37797
C         -5.53783       -1.44509       -0.57586
O         -6.62872       -1.00639       -0.85538
O         -5.22895       -2.72225       -0.41781
C         -6.31641       -3.63147       -0.60174
C         -4.56163        0.77279       -0.51201
H         -5.51403        1.18432       -0.81248
C         -3.37482        1.35216       -0.24403
C         -2.69434        2.64607       -0.29101
O         -3.09276        3.76740       -0.45380
N         -1.31075        2.28253       -0.02109
C         -0.35970        3.27752        0.30542
O         -0.22581        4.29988       -0.30697
O          0.32611        2.91908        1.39323
C          1.41733        3.78066        1.72573
H          1.28877       -2.87774        2.21112
H          4.93555        1.25342       -2.12307
H         -5.88179       -4.62139       -0.47367
H         -6.74292       -3.52118       -1.60104
H         -7.09334       -3.45163        0.14485
H          1.86849        3.34299        2.61477
H          1.05423        4.78985        1.92985
H          2.13849        3.80895        0.90527
