56
COMP81_300012.log	Energy: -1548942.8180037
C          0.68675        0.10381        0.03253
C          2.15427        0.16233        0.02806
C          3.03500       -0.85141       -0.24545
C          2.64922       -2.17268       -0.61788
N          2.36952       -3.25800       -0.91873
C          4.42392       -0.45115       -0.17486
C          5.55781       -1.22899       -0.40068
H          5.46478       -2.27898       -0.66033
C          6.79212       -0.60791       -0.27725
S          8.36350       -1.34854       -0.50379
C          9.16254        0.14335       -0.15252
H         10.24283        0.19792       -0.16832
C          8.30536        1.16150        0.12488
C          8.71687        2.48962        0.44546
N          9.01331        3.57907        0.70960
C          6.91396        0.76132        0.06167
C          5.77926        1.53969        0.28478
H          5.87239        2.59040        0.54152
C          4.54643        0.91872        0.16070
S          2.97762        1.65624        0.39108
C         -0.07330        1.16336       -0.47439
C         -1.46538        1.10696       -0.51914
C         -2.12779       -0.02565       -0.04745
C         -3.53535       -0.47928        0.01290
C         -3.46647       -1.93031        0.47412
O         -4.32347       -2.78307        0.56255
N         -2.14716       -2.13210        0.81445
O         -1.65663       -3.33440        1.22382
C         -1.39383       -4.19051        0.10172
C         -1.32997       -1.07738        0.44447
C          0.04393       -1.04143        0.52110
C         -4.71035        0.18393       -0.16982
C         -4.78412        1.69693       -0.35211
O         -3.92051        2.51883       -0.57246
N         -6.11041        2.01713       -0.15565
O         -6.60435        3.23751       -0.53120
C         -6.49167        4.16785        0.54704
C         -6.92770        0.88956       -0.15106
C         -8.30712        0.86461       -0.17264
C         -8.91784       -0.38922       -0.17803
H        -10.00159       -0.45377       -0.19839
C         -8.15387       -1.55307       -0.16952
C         -6.76030       -1.50281       -0.14944
C         -6.11816       -0.26295       -0.12984
H          0.42571        2.03869       -0.87825
H         -2.02643        1.93305       -0.92677
H         -0.99364       -5.10491        0.53987
H         -0.64726       -3.74270       -0.56278
H         -2.32188       -4.40405       -0.43520
H          0.58788       -1.87598        0.94614
H         -6.95246        5.08368        0.17432
H         -5.44022        4.34760        0.78617
H         -7.02936        3.80516        1.42936
H         -8.87554        1.78685       -0.20349
H         -8.64531       -2.52022       -0.18470
H         -6.18041       -2.41234       -0.14934
