34
COMP57_420200.log	Energy: -2702252.7567182
C         -1.80010        0.15520        0.51387
C         -0.43146        0.59787        0.28216
C          0.03200        1.87384        0.11342
Cl        -0.94449        3.30377        0.18843
C          1.43676        1.95736       -0.11576
O          2.12645        3.10181       -0.29452
C          2.04262        0.72397       -0.13228
S          0.87539       -0.53418        0.14285
C          3.45683        0.49327       -0.34271
C          4.05465       -0.70976       -0.45144
C          5.48919       -0.89911       -0.58634
C          6.49707       -0.15122       -0.02262
O          6.36071        0.91407        0.79235
C          7.79729       -0.64391       -0.35614
Cl         9.24454        0.10542        0.21874
C          7.76709       -1.74910       -1.14744
H          8.61206       -2.29869       -1.53600
S          6.15321       -2.22388       -1.50524
C         -2.33233       -0.49436        1.59958
Cl        -1.43661       -0.91246        3.01362
N         -3.65155       -0.80360        1.54903
C         -4.16054       -0.39693        0.41819
S         -3.05872        0.38459       -0.66140
C         -5.56163       -0.57385        0.07018
S         -6.67578       -1.33944        1.15709
C         -7.91374       -1.10059       -0.01139
H         -8.93239       -1.41963        0.15200
C         -7.39270       -0.47367       -1.10475
Cl        -8.30951       -0.05034       -2.50627
N         -6.06754       -0.17470       -1.06387
H          1.52098        3.85395       -0.23277
H          4.04074        1.40433       -0.46028
H          3.44681       -1.61471       -0.42854
H          5.43960        0.95949        1.08817
