34
COMP53_000420.log	Energy: -1096323.2076398
C          0.65288       -0.12196        0.20966
C          2.07259        0.21391        0.04004
C          2.97083       -0.79973       -0.32906
C          4.33474       -0.54228       -0.45712
O          5.26534       -1.46865       -0.80637
C          4.82585       -2.78379       -1.05855
C          4.80612        0.74931       -0.22886
H          5.86731        0.94557       -0.33762
C          3.92781        1.76658        0.11746
C          2.56261        1.51220        0.25709
O          1.64053        2.44965        0.59573
C          2.07048        3.77762        0.78909
C          0.14871       -1.25276        0.81644
O          0.86006       -2.21410        1.44304
N         -1.19781       -1.41351        0.79111
C         -1.75429       -0.40874        0.16896
S         -0.67598        0.81225       -0.40531
C         -3.19150       -0.29389       -0.01792
S         -4.27043       -1.51151        0.58103
C         -5.58622       -0.59433       -0.05738
H         -6.61008       -0.92554        0.04202
C         -5.10837        0.53855       -0.65923
O         -5.81619        1.50950       -1.27338
N         -3.75804        0.70525       -0.63606
H          2.56783       -1.78141       -0.55367
H          5.71823       -3.35441       -1.31778
H          4.11741       -2.81973       -1.89617
H          4.35690       -3.23053       -0.17160
H          4.32271        2.76235        0.28263
H          1.17433        4.34694        1.03688
H          2.52320        4.19071       -0.12137
H          2.78739        3.85097        1.61694
H          1.77026       -1.90035        1.54046
H         -6.75335        1.28619       -1.23349
