38
COMP72_200000.log	Energy: -2153193.3573896
C          0.68468       -1.54480       -0.29326
C         -0.64148       -1.17004        0.19562
C         -1.08462       -1.11227        1.48729
Cl        -0.09527       -1.50800        2.85054
C         -2.42781       -0.67368        1.62521
H         -2.91964       -0.54451        2.58163
C         -3.00948       -0.40226        0.41680
S         -1.90699       -0.69464       -0.88998
C         -4.36292        0.06480        0.15143
S         -5.68081       -0.39371        1.18803
C         -6.81013        0.51062        0.25511
H         -7.85543        0.55269        0.52495
C         -6.19497        1.10964       -0.80131
Cl        -7.02687        2.09794       -1.95955
C         -4.79516        0.86490       -0.87117
H         -4.14688        1.28725       -1.62939
C          1.84748       -0.81435       -0.27852
C          1.98342        0.58137        0.22194
O          1.03793        1.21969        0.65466
C          3.35332        1.13025        0.14037
C          3.69804        2.38508        0.57417
C          2.83592        3.44075        1.19243
S          5.38663        2.65555        0.31096
C          5.64539        1.09293       -0.38302
C          7.00024        0.66950       -0.85723
C          4.46652        0.39288       -0.40597
C          4.32631       -0.97706       -0.93371
O          5.24889       -1.61525       -1.41654
C          2.95548       -1.53607       -0.83076
C          2.61459       -2.78776       -1.25561
H          3.27434       -3.51548       -1.70826
S          0.95640       -3.11383       -0.98499
H          2.05121        3.74750        0.49514
H          3.42166        4.31959        1.47516
H          2.33161        3.04698        2.07881
H          7.74609        1.45022       -0.68613
H          6.97156        0.43312       -1.92464
H          7.31473       -0.24248       -0.34249
