57
COMP86_000010.log	Energy: -912458.6704756
C          1.26589        0.24299       -0.15690
C          2.74780        0.26467       -0.20741
C          3.48776       -0.80425        0.31791
C          4.87029       -0.77200        0.26542
C          5.86777       -1.78941        0.76991
H          5.77116       -1.95225        1.85055
H          5.73435       -2.76571        0.28750
C          7.19355       -1.15849        0.41011
C          8.47924       -1.63464        0.61820
C          9.56139       -0.86441        0.19195
H         10.57350       -1.22598        0.34776
C          9.35540        0.36608       -0.43323
C          8.06592        0.84770       -0.64428
C          6.98660        0.07862       -0.22026
C          5.54017        0.31928       -0.30818
C          4.81789        1.38554       -0.83349
C          3.42885        1.34960       -0.77836
C          0.55917       -0.93811       -0.40368
C         -0.83081       -0.99346       -0.34249
C         -1.55870        0.15385       -0.02621
C         -2.98986        0.49564        0.07580
C         -3.00806        1.98995        0.36449
O         -3.95070        2.73678        0.55218
N         -1.69745        2.39819        0.43963
C         -1.30231        3.75570        0.71849
C         -0.83012        1.34225        0.18851
C          0.54860        1.41079        0.13912
C         -4.12161       -0.26069       -0.00279
C         -4.10099       -1.78160        0.00124
O         -3.15751       -2.54865        0.06459
N         -5.41029       -2.19882       -0.02583
C         -5.80388       -3.58494       -0.01449
C         -6.27928       -1.11590       -0.08782
C         -7.65845       -1.17264       -0.18421
C         -8.35057        0.03500       -0.27559
H         -9.43381        0.02404       -0.35253
C         -7.66453        1.24443       -0.27742
C         -6.27352        1.28449       -0.17373
C         -5.55416        0.09413       -0.06321
H          2.97209       -1.63960        0.78451
H          8.64477       -2.59232        1.10461
H         10.20924        0.95293       -0.75880
H          7.90985        1.80588       -1.13216
H          5.32315        2.23277       -1.28869
H          2.85678        2.16630       -1.20960
H          1.10546       -1.83723       -0.67138
H         -1.34221       -1.92431       -0.52965
H         -2.21257        4.33526        0.87522
H         -0.74130        4.17640       -0.12318
H         -0.68223        3.79883        1.62020
H          1.06767        2.34066        0.34868
H         -4.89403       -4.18357        0.04044
H         -6.35321       -3.83878       -0.92776
H         -6.43475       -3.79981        0.85466
H         -8.18140       -2.12333       -0.19569
H         -8.21315        2.17742       -0.35686
H         -5.75610        2.23067       -0.16298
