39
COMP45_000031.log	Energy: -989963.5518821
C          2.17568       -1.15529        0.03932
C          0.71037       -1.25867       -0.01786
C         -0.06444       -0.09558        0.05729
C         -1.44843       -0.22311        0.01906
N         -2.46143        0.76168        0.08096
C         -2.32170        2.14448        0.14177
O         -3.24934        2.91928        0.17545
O         -1.03857        2.49599        0.15385
C         -0.77829        3.89997        0.17403
C         -3.71434        0.11291        0.02202
C         -5.00179        0.64603        0.05552
C         -6.06401       -0.24727       -0.01930
H         -7.07661        0.14395        0.00632
C         -5.86336       -1.62881       -0.12539
C         -4.57849       -2.14941       -0.15765
C         -3.49857       -1.27091       -0.08283
C         -2.06689       -1.48180       -0.08469
C         -1.28738       -2.63336       -0.16736
C          0.09002       -2.51812       -0.13799
C          3.03076       -0.08170       -0.05211
C          2.96563        1.39439       -0.24604
O          2.02584        2.15074       -0.35809
N          4.30166        1.80747       -0.26579
H          4.56067        2.77746       -0.37591
C          5.24274        0.78580       -0.08708
O          6.44033        0.92636       -0.05846
C          4.40804       -0.43285        0.04891
C          4.63969       -1.75412        0.22830
H          5.58236       -2.27268        0.33345
S          3.13941       -2.60235        0.28009
H          0.40818        0.87229        0.13159
H          0.30551        3.98151        0.12103
H         -1.16443        4.34381        1.09445
H         -1.24781        4.38387       -0.68503
H         -5.16157        1.71139        0.13753
H         -6.71877       -2.29474       -0.18093
H         -4.41286       -3.21955       -0.24025
H         -1.75451       -3.60884       -0.25963
H          0.69008       -3.41938       -0.22007
