54
COMP81_200012.log	Energy: -2009998.3025228
C          0.53338       -0.00263       -0.06627
C          2.00407        0.05762       -0.05241
C          2.91242       -0.89217       -0.39701
Cl         2.50834       -2.46404       -1.01489
C          4.29042       -0.48592       -0.26813
C          5.44553       -1.21472       -0.54571
H          5.38054       -2.23422       -0.91138
C          6.66548       -0.58922       -0.33744
S          8.25146       -1.28310       -0.60464
C          9.02165        0.18881       -0.08621
H         10.09997        0.26576       -0.07138
C          8.13598        1.14392        0.26673
Cl         8.59254        2.72005        0.82583
C          6.75501        0.74258        0.13886
C          5.59964        1.47230        0.41263
H          5.66433        2.49265        0.77632
C          4.38050        0.84688        0.20255
S          2.79677        1.53542        0.46913
C         -0.21360        1.04515       -0.61375
C         -1.60714        1.01679       -0.63852
C         -2.28632       -0.07571       -0.10018
C         -3.70403       -0.48591        0.01806
C         -3.65975       -1.91230        0.55155
O         -4.53266       -2.74285        0.69255
N         -2.34055       -2.13007        0.87697
O         -1.87325       -3.33303        1.31422
C         -1.72120       -4.24770        0.22168
C         -1.50184       -1.11916        0.42943
C         -0.12583       -1.11202        0.47918
C         -4.86722        0.19773       -0.16762
C         -4.90701        1.69518       -0.45204
O         -4.03375        2.47394       -0.76926
N         -6.21488        2.06921       -0.22443
O         -6.68975        3.27493       -0.66698
C         -6.51156        4.27327        0.33852
C         -7.06254        0.97072       -0.10932
C         -8.44176        0.98813       -0.06866
C         -9.08800       -0.24279        0.04187
H        -10.17294       -0.27370        0.07567
C         -8.35775       -1.42640        0.09867
C         -6.96362       -1.41916        0.05251
C         -6.28550       -0.20248       -0.04378
H          0.29968        1.89331       -1.05567
H         -2.15650        1.83410       -1.07852
H         -1.31267       -5.15335        0.67096
H         -1.02012       -3.84863       -0.51993
H         -2.69132       -4.45858       -0.23575
H          0.41368       -1.93448        0.93265
H         -6.95720        5.17581       -0.08215
H         -5.44772        4.43562        0.53060
H         -7.02916        3.99080        1.26138
H         -8.98401        1.92385       -0.13887
H         -8.87581       -2.37666        0.17559
H         -6.41057       -2.34435        0.08974
