35
COMP68_000002.log	Energy: -940763.3442609
C         -0.14436        0.87587       -0.09694
C          1.25245        0.62354        0.09966
C          1.88610       -0.55490       -0.22329
O          1.32902       -1.53909       -0.94234
C          1.98762       -2.78809       -0.73986
C          3.48710       -2.61431       -0.91068
O          4.01917       -1.70851        0.05570
C          3.23922       -0.61369        0.23551
C          3.62181        0.52630        0.87311
H          4.59187        0.73990        1.29790
S          2.35658        1.69829        0.91824
C         -1.19318       -0.01104       -0.17334
C         -1.53652       -1.39239        0.12486
O         -0.91926       -2.38854        0.45030
N         -2.96181       -1.35571        0.00524
O         -3.72916       -2.48432       -0.00092
C         -3.94966       -2.94521        1.33447
C         -3.45951       -0.12155       -0.33183
H         -4.52327        0.02303       -0.45508
C         -2.40324        0.72704       -0.43479
C         -2.08211        2.14085       -0.54805
O         -2.71823        3.13552       -0.81130
N         -0.68537        2.15153       -0.21957
O          0.09862        3.21897       -0.57374
C         -0.00878        4.26321        0.39730
H          1.58506       -3.46837       -1.49103
H          1.73623       -3.16459        0.25700
H          3.70632       -2.24113       -1.91925
H          4.00758       -3.56140       -0.75740
H         -4.55770       -3.84410        1.22366
H         -4.49269       -2.19290        1.91787
H         -2.99856       -3.18926        1.81333
H          0.69397        5.02619        0.05988
H          0.27864        3.90050        1.39022
H         -1.02523        4.66272        0.41294
