48
COMP92_420000.log	Energy: -2007345.4150215
C          0.91940       -0.30755        0.24936
C         -0.53187       -0.53532        0.37652
C         -1.14413       -1.28845        1.34179
O         -0.56541       -1.89046        2.40219
C         -2.55588       -1.38591        1.14650
Cl        -3.56842       -2.24375        2.24740
C         -2.99837       -0.72300        0.03560
S         -1.67803        0.03284       -0.79336
C         -4.35906       -0.62290       -0.48464
S         -5.17930       -2.00876       -1.13000
C         -6.58325       -1.08002       -1.50649
H         -7.44825       -1.54941       -1.95497
C         -6.43236        0.23074       -1.16076
O         -7.31926        1.23994       -1.30309
C         -5.15147        0.48875       -0.57661
Cl        -4.70288        2.06039       -0.02633
C          1.72300       -1.46564        0.07332
C          3.07898       -1.38057       -0.11971
C          3.87388       -2.62820       -0.29489
O          3.36106       -3.72737       -0.23164
N          5.24064       -2.46613       -0.53360
C          6.06422       -3.65990       -0.71852
C          5.90626       -1.24082       -0.61301
O          7.10197       -1.20244       -0.82419
C          5.09036       -0.01163       -0.42614
C          5.69008        1.22489       -0.49666
H          6.75595        1.28361       -0.68827
C          4.92042        2.38966       -0.32321
C          3.56825        2.30571       -0.07462
C          2.79186        3.56074        0.10130
O          3.30594        4.65707       -0.00306
N          1.44187        3.40877        0.40854
C          0.65432        4.61165        0.67572
C          0.78527        2.18914        0.60725
O         -0.33916        2.18302        1.06148
C          1.53356        0.94323        0.25495
C          2.92652        1.04651        0.00461
C          3.70358       -0.11777       -0.18160
H          0.36201       -1.62559        2.45405
H         -8.13256        0.89540       -1.69019
H          1.25251       -2.44411        0.06921
H          5.41156       -4.52753       -0.65820
H          6.83008       -3.70399        0.05826
H          6.55666       -3.61765       -1.69161
H          5.37635        3.37175       -0.38451
H          1.21214        5.46534        0.29813
H          0.48337        4.72210        1.74927
H         -0.31066        4.52511        0.17592
