35
COMP42_440002.log	Energy: -1476139.9760298
C          1.45152        0.83878       -0.19588
C          0.18600        0.15762       -0.13769
C         -0.10222       -1.17611       -0.34829
O          0.70434       -2.20978       -0.63241
C         -1.49954       -1.44904       -0.32726
O         -1.97232       -2.70005       -0.51681
C         -2.28573       -0.35097       -0.09901
S         -1.29050        1.06862        0.11446
C         -3.72531       -0.30391        0.01134
S         -4.72654       -1.73258       -0.13048
C         -6.17322       -0.81477        0.11164
H         -7.13784       -1.30331        0.10543
C         -5.90177        0.50486        0.28980
O         -6.74420        1.55449        0.50707
C         -4.50739        0.79996        0.23282
O         -4.01895        2.05260        0.38646
C          2.74574        0.41144       -0.00072
C          3.43239       -0.82204        0.39740
O          3.01394       -1.94766        0.62217
N          4.77807       -0.46764        0.46522
O          5.72441       -1.32486        0.92653
C          6.34342       -2.02510       -0.15703
C          5.06609        0.88278        0.16210
O          6.16296        1.37667        0.15937
C          3.72635        1.43894       -0.13914
C          3.21896        2.65496       -0.44160
H          3.73445        3.59523       -0.57885
S          1.49674        2.55431       -0.58627
H          1.56303       -2.15568       -0.14086
H         -1.19887       -3.27611       -0.62550
H         -7.65670        1.24546        0.52988
H         -4.76638        2.65020        0.53044
H          7.07954       -2.67480        0.31700
H          6.84244       -1.32253       -0.83085
H          5.60516       -2.62622       -0.69637
