40
COMP51_300020.log	Energy: -1713000.3296909
C          2.05306       -0.50998        0.07818
C          0.61562       -0.31450        0.03755
C         -0.12029        0.83634        0.18755
C          0.46836        2.11451        0.41559
N          0.95928        3.15392        0.57398
C         -1.55047        0.61604        0.10550
C         -2.59926        1.53541        0.21199
O         -2.38376        2.85777        0.44603
C         -2.20090        3.65099       -0.72739
C         -3.89598        1.04031        0.11823
S         -5.34755        2.00569        0.24076
C         -6.32919        0.60575       -0.00346
H         -7.40725        0.69610       -0.01662
C         -5.61899       -0.54536       -0.15944
C         -6.25193       -1.81025       -0.35778
N         -6.78888       -2.82866       -0.49504
C         -4.18717       -0.32732       -0.08711
C         -3.13768       -1.24618       -0.19420
O         -3.35428       -2.56854       -0.43101
C         -3.53873       -3.36274        0.74138
C         -1.84422       -0.75039       -0.09917
S         -0.39800       -1.71436       -0.23768
C          2.70071       -1.70328        0.30112
H          2.20347       -2.64408        0.50915
N          4.05769       -1.67007        0.26939
C          4.47409       -0.45662        0.02075
S          3.23589        0.73737       -0.18444
C          5.87910       -0.09351       -0.07320
S          7.13333       -1.27418        0.15479
C          8.28944       -0.02998       -0.11657
H          9.35133       -0.22875       -0.08730
C          7.65979        1.15648       -0.35384
H          8.15678        2.09758       -0.55267
N          6.29305        1.11566       -0.32876
H         -1.97661        4.65757       -0.37586
H         -3.11268        3.65921       -1.33634
H         -1.36109        3.28242       -1.32543
H         -3.74050       -4.37389        0.38913
H         -4.39278       -3.00792        1.32745
H         -2.63519       -3.35459        1.36265
