31
COMP22_310300.log	Energy: -1511842.4997017
C          2.11941        0.19771       -0.05210
C          0.68093        0.02564        0.19492
C          0.10666       -0.84832        1.09285
C          0.84184       -1.69487        1.97367
N          1.45608       -2.37068        2.68635
C         -1.31345       -0.76449        1.07528
F         -2.06430       -1.49016        1.88711
C         -1.81604        0.13381        0.17709
S         -0.51674        0.89946       -0.67998
C         -3.21263        0.43908       -0.07768
S         -3.82182        2.06510       -0.19749
C         -5.41848        1.52021       -0.47666
H         -6.22315        2.22460       -0.63372
C         -5.50991        0.15285       -0.46450
C         -6.71630       -0.58128       -0.66612
N         -7.69731       -1.17471       -0.83190
C         -4.23583       -0.45077       -0.23819
F         -4.07959       -1.76444       -0.20759
C          2.90623       -0.93528       -0.43809
N          2.44191       -2.16797       -0.64459
S          3.72375       -3.07595       -1.04001
N          4.90502       -1.96640       -0.98687
C          4.32087       -0.81631       -0.64170
C          4.96834        0.43734       -0.49196
H          6.03569        0.52774       -0.65384
C          4.20378        1.51772       -0.14423
C          4.83280        2.79966        0.00862
N          5.35913        3.82500        0.12218
C          2.77901        1.40086        0.08597
C          2.06424        2.57364        0.50445
N          1.49381        3.52305        0.84369
