39
COMP41_200002.log	Energy: -1961323.1884372
C         -2.19713       -0.87055        0.61523
C         -0.76266       -0.64837        0.44993
C          0.17653       -1.48881       -0.05936
Cl        -0.26773       -3.05369       -0.66786
C          1.52082       -0.94439       -0.08578
C          2.72525       -1.51161       -0.53673
C          2.83951       -2.90233       -1.10858
C          3.85242       -0.70004       -0.42801
S          5.46053       -1.19555       -0.93250
C          6.12071        0.32540       -0.44293
H          7.17652        0.52664       -0.55938
C          5.19604        1.16517        0.06742
Cl         5.66274        2.74527        0.62611
C          3.84875        0.62068        0.09887
C          2.64620        1.18727        0.54749
C          2.53619        2.58081        1.11294
C          1.51795        0.37543        0.44047
S         -0.08121        0.87540        0.94500
C         -3.23963       -0.13678        0.12974
C         -3.41955        1.04138       -0.76108
O         -2.62331        1.74517       -1.32573
N         -4.81935        1.19468       -0.80003
O         -5.41110        2.08838       -1.63502
C         -5.66984        3.31842       -0.95381
C         -5.56796        0.24556       -0.07877
O         -6.76867        0.20648       -0.00277
C         -4.51713       -0.60915        0.53136
C         -4.46826       -1.70028        1.33645
H         -5.28472       -2.26047        1.77119
S         -2.82809       -2.16217        1.61134
H          2.45711       -3.65281       -0.41262
H          3.88013       -3.15656       -1.32370
H          2.27729       -2.99769       -2.04169
H          2.90686        3.32662        0.40569
H          3.11229        2.68399        2.03671
H          1.49826        2.83612        1.34051
H         -6.11715        3.96636       -1.70823
H         -4.73667        3.75835       -0.58913
H         -6.37397        3.15973       -0.13139
