23
COMP44_100001.log	Energy: -1291529.3320774
C          1.13684       -0.61700       -0.00199
C         -0.28245       -0.32537       -0.00166
C         -1.30188       -1.24389        0.00014
F         -1.10311       -2.56257        0.00312
C         -2.59467       -0.67553       -0.00254
S         -4.21907       -1.27428        0.00703
C         -4.83092        0.35574        0.00445
H         -5.89430        0.54575        0.00656
C         -3.83768        1.28122       -0.00161
F         -4.03354        2.59689       -0.00467
C         -2.53711        0.70251       -0.00602
S         -0.92270        1.31732       -0.00648
C          2.22435        0.21962       -0.00071
C          2.48893        1.67946        0.00479
O          1.72576        2.61781        0.00509
N          3.88518        1.78042        0.00881
H          4.36135        2.67126        0.00471
C          4.56660        0.55557        0.00161
O          5.76401        0.41343        0.00039
C          3.47484       -0.45303       -0.00156
C          3.37606       -1.80371       -0.00236
H          4.16164       -2.54657       -0.00319
S          1.71609       -2.27715       -0.00398
