38
COMP51_200400.log	Energy: -2174076.8491620
C         -1.63008       -0.40125        0.32670
C         -0.19015       -0.22856        0.20516
C          0.56942        0.88633        0.37373
Cl        -0.16752        2.38844        0.83548
C          1.99699        0.69218        0.18777
C          3.05808        1.60881        0.27210
C          2.88188        3.07829        0.56123
C          4.33121        1.07970        0.06267
S          5.80289        2.03556        0.12554
C          6.76371        0.64493       -0.23604
H          7.83845        0.72810       -0.31751
C          6.03167       -0.47770       -0.39393
Cl         6.81271       -1.98656       -0.76807
C          4.60106       -0.28438       -0.22831
C          3.53950       -1.19927       -0.31920
C          3.72194       -2.66422       -0.62544
C          2.26871       -0.67001       -0.10974
S          0.79707       -1.61797       -0.20886
C         -2.29151       -1.32595        1.10882
O         -1.74459       -2.21550        1.95270
N         -3.64573       -1.33041        1.02211
C         -4.04480       -0.42301        0.17323
S         -2.80152        0.50856       -0.58330
C         -5.44664       -0.18224       -0.13003
S         -6.70096       -1.09745        0.63718
C         -7.85307       -0.18808       -0.26810
H         -8.91517       -0.36153       -0.16978
C         -7.20475        0.71964       -1.06335
O         -7.74931        1.61106       -1.91527
N         -5.84667        0.71965       -0.98276
H          2.19243        3.54339       -0.14723
H          3.83312        3.61116        0.48967
H          2.48471        3.24381        1.56648
H          4.38096       -3.14402        0.10241
H          4.16146       -2.81238       -1.61568
H          2.76732       -3.19602       -0.60567
H         -0.78277       -2.11032        1.95347
H         -8.70946        1.52604       -1.88947
