54
COMP91_000031.log	Energy: -1620609.1936425
C         -1.50699       -0.06179       -0.12788
C         -0.02920        0.04239       -0.09688
C          0.83445       -0.95415        0.18774
H          0.53570       -1.94287        0.50018
C          2.21299       -0.55190        0.05101
C          3.36856       -1.32038        0.28983
C          3.22219       -2.73650        0.74145
O          2.17722       -3.33441        0.87408
O          4.40667       -3.30644        0.99477
C          4.36992       -4.66585        1.42669
C          4.61559       -0.71310        0.08778
S          6.19893       -1.43112        0.30823
C          6.97077        0.04165       -0.18464
H          8.05195        0.08840       -0.21086
C          6.11398        1.03413       -0.49919
H          6.41201        2.01917       -0.82200
C          4.73377        0.63525       -0.35332
C          3.57614        1.40297       -0.59254
C          3.71668        2.81507       -1.05640
O          4.75875        3.40510       -1.23469
O          2.52597        3.39194       -1.26746
C          2.55490        4.74875       -1.70772
C          2.33070        0.79840       -0.38083
S          0.75022        1.52175       -0.59374
C         -2.07065       -0.65960       -1.28171
C         -3.42696       -0.79736       -1.42657
C         -3.97240       -1.42590       -2.66072
O         -3.28363       -1.83897       -3.56876
N         -5.35829       -1.51307       -2.71412
H         -5.74219       -1.93740       -3.55080
C         -6.28573       -1.08848       -1.77026
O         -7.47589       -1.22832       -1.95689
C         -5.70889       -0.46685       -0.54742
C         -6.55057       -0.02082        0.44481
H         -7.62146       -0.13321        0.31479
C         -6.01635        0.56593        1.60491
C         -4.65479        0.70095        1.75548
C         -4.12960        1.31992        2.99933
O         -4.83061        1.72562        3.90283
N         -2.74913        1.40512        3.06582
H         -2.36985        1.81406        3.91222
C         -1.79967        0.99296        2.13467
O         -0.62151        1.13557        2.37667
C         -2.34698        0.38923        0.88136
C         -3.75932        0.25386        0.74822
C         -4.30374       -0.33839       -0.41453
H          5.41117       -4.95003        1.57205
H          3.89923       -5.29443        0.66753
H          3.81237       -4.75204        2.36195
H          1.51090        5.03881       -1.81757
H          3.07988        4.82733       -2.66229
H          3.05606        5.37771       -0.96872
H         -1.41498       -1.01388       -2.07026
H         -6.66382        0.92087        2.39956
