34
COMP52_330400.log	Energy: -1731577.3900097
C         -1.27800       -0.14588        0.20048
C          0.08141        0.34360        0.17073
C          0.58281        1.57685        0.54050
C         -0.20967        2.62990        1.08553
N         -0.84707        3.49053        1.52874
C          2.00318        1.67933        0.37245
C          2.74812        2.84526        0.72662
N          3.35837        3.79011        1.00503
C          2.57450        0.52554       -0.11350
S          1.35967       -0.66612       -0.42926
C          3.98187        0.24412       -0.36616
S          5.00264        1.37595       -1.18485
C          6.35488        0.33626       -1.08328
H          7.31430        0.63459       -1.48254
C          6.05465       -0.84224       -0.45592
C          7.00412       -1.88676       -0.23671
N          7.77780       -2.73144       -0.06481
C          4.68277       -0.89913       -0.03936
C          4.11159       -2.00103        0.66608
N          3.62459       -2.88455        1.23649
C         -1.71357       -1.42757        0.50248
O         -0.98012       -2.48379        0.87689
N         -3.04743       -1.64040        0.40422
C         -3.65617       -0.54577        0.03633
S         -2.65635        0.84171       -0.20869
C         -5.09401       -0.46082       -0.15564
S         -6.12494       -1.82210        0.12164
C         -7.46458       -0.83670       -0.32452
H         -8.47348       -1.22416       -0.33153
C         -7.03041        0.42513       -0.64232
O         -7.76811        1.47883       -1.03820
N         -5.69029        0.63184       -0.54547
H         -0.08547       -2.22086        1.13388
H         -8.69835        1.22579       -1.06291
