42
COMP31_300030.log	Energy: -1536575.6232864
C         -3.13631       -0.28292        0.00551
C         -1.66575       -0.21994        0.03479
C         -0.90613        0.90996       -0.08091
C         -1.51182        2.16148       -0.40767
N         -2.04924        3.13233       -0.74209
C          0.51727        0.63992       -0.01371
C          1.59479        1.53403       -0.06045
C          1.37329        3.00669        0.08807
O          0.60018        3.48404        0.87970
O          2.16399        3.71633       -0.72232
C          2.03585        5.13940       -0.60620
C          2.88161        0.99996       -0.10615
S          4.36769        1.91632       -0.25464
C          5.29783        0.46949       -0.19555
H          6.37331        0.51422       -0.30643
C          4.56017       -0.66590       -0.06678
C          5.18452       -1.94717       -0.17349
N          5.73848       -2.95303       -0.33050
C          3.13447       -0.39025        0.01668
C          2.05891       -1.27243        0.18688
C          2.29156       -2.69365        0.58990
O          3.13592       -3.03302        1.38013
O          1.41969       -3.52532        0.01071
C          1.53868       -4.90121        0.39282
C          0.76765       -0.74930        0.10743
S         -0.71833       -1.66489        0.19955
C         -3.81810       -1.07317       -0.92210
F         -3.13748       -1.79750       -1.81004
C         -5.20545       -1.10937       -0.94767
F         -5.81537       -1.87204       -1.85389
C         -5.94989       -0.36242       -0.05010
H         -7.03247       -0.39089       -0.07359
C         -5.28474        0.42255        0.87630
F         -5.97253        1.14559        1.75711
C         -3.89662        0.46318        0.90965
F         -3.29655        1.21820        1.82341
H          2.73479        5.55192       -1.33183
H          2.28980        5.46131        0.40601
H          1.01132        5.43886       -0.83571
H          0.76427       -5.42410       -0.16589
H          1.38316       -5.01117        1.46816
H          2.52971       -5.27627        0.13002
