42
COMP72_400002.log	Energy: -1765128.2676355
C          0.22198       -1.11068        0.36439
C          1.43876       -0.32059        0.39120
C          1.77550        0.79380        1.14494
O          0.96386        1.49407        1.93997
C          3.15915        1.12607        1.06296
H          3.58389        1.95660        1.61418
C          3.87334        0.28850        0.25505
S          2.85318       -0.92191       -0.45353
C          5.28780        0.34064       -0.07854
S          6.16451        1.83905       -0.00241
C          7.63130        1.06647       -0.49173
H          8.54651        1.63446       -0.58933
C          7.43842       -0.26773       -0.71469
O          8.36341       -1.17855       -1.11043
C          6.09755       -0.68723       -0.47734
H          5.77471       -1.71648       -0.57996
C         -1.13040       -0.79373        0.30635
C         -1.71761        0.55053        0.20121
O         -1.05988        1.58920        0.30815
C         -3.16391        0.59224       -0.04515
C         -3.87868        1.74676       -0.22838
O         -3.38678        2.97905       -0.24703
C         -4.27155        4.06565       -0.46146
S         -5.59597        1.42762       -0.45335
C         -5.32018       -0.30423       -0.27947
O         -6.30877       -1.18835       -0.34843
C         -7.62746       -0.72309       -0.57630
C         -4.00103       -0.59033       -0.07299
C         -3.44664       -1.93959        0.10419
O         -4.11253       -2.96122        0.10419
C         -1.96903       -1.96560        0.25622
C         -1.27080       -3.13116        0.28869
H         -1.68630       -4.12837        0.24382
S          0.41478       -2.84864        0.38669
H          0.09918        1.57272        1.46825
H          9.21529       -0.73948       -1.21695
H         -3.65141        4.96068       -0.43573
H         -5.02673        4.11939        0.33186
H         -4.76022        3.98551       -1.43995
H         -8.25604       -1.61261       -0.58846
H         -7.70215       -0.20905       -1.54231
H         -7.95435       -0.05511        0.22987
