37
COMP27_440300.log	Energy: -1508921.8876198
C          2.71411        0.15879        0.11751
C          1.38096       -0.38106        0.34284
C          1.00004       -1.59653        0.88471
O          1.74692       -2.60188        1.38724
C         -0.40963       -1.76621        0.95638
O         -0.96882       -2.88195        1.47013
C         -1.12214       -0.70947        0.45107
S         -0.04667        0.52270       -0.12862
C         -2.56366       -0.61983        0.37657
C         -3.26064        0.47813        0.01554
C         -4.70180        0.52948       -0.12388
C         -5.56348       -0.48495       -0.45575
O         -5.26975       -1.78171       -0.74689
C         -6.93217       -0.08199       -0.53208
O         -7.92397       -0.94418       -0.85285
C         -7.09902        1.24088       -0.25953
H         -8.02725        1.79254       -0.24496
S         -5.59187        2.01630        0.08056
C          3.81153       -0.70340       -0.25844
N          3.75842       -2.03301       -0.34836
S          5.22816       -2.55168       -0.82386
N          5.98874       -1.12855       -0.94156
C          5.10808       -0.18646       -0.60150
C          5.36986        1.20646       -0.56254
H          6.34359        1.59547       -0.83212
C          4.34856        2.01897       -0.16210
C          4.59382        3.43369       -0.09063
N          4.83045        4.56654       -0.04866
C          3.03742        1.51044        0.19153
C          2.10566        2.49081        0.66905
N          1.42267        3.33544        1.07375
H          2.56395       -2.67743        0.85373
H         -0.24151       -3.47120        1.72288
H         -3.08369       -1.51936        0.69964
H         -2.72344        1.40358       -0.19263
H         -4.33293       -1.85050       -0.98053
H         -7.51457       -1.80189       -1.03527
