28
COMP32_310000.log	Energy: -1327356.4985701
C         -2.41781       -0.22190        0.01632
C         -1.03641        0.26930       -0.09081
C         -0.62958        1.55014       -0.38579
C         -1.50657        2.63119       -0.69273
N         -2.22308        3.50341       -0.95298
C          0.78812        1.66099       -0.38468
F          1.40057        2.81140       -0.65527
C          1.45869        0.50584       -0.09807
S          0.31107       -0.77040        0.18470
C          2.89237        0.30334       -0.03271
S          4.04743        1.56633       -0.36118
C          5.37499        0.52568       -0.07459
H          6.38867        0.88977       -0.16458
C          4.98078       -0.74274        0.25975
C          5.86416       -1.82308        0.55472
N          6.58224       -2.69990        0.79481
C          3.55956       -0.84798        0.27849
F          2.94300       -1.98889        0.57776
C         -2.87110       -1.29218       -0.75784
F         -2.04477       -1.89204       -1.61401
C         -4.18074       -1.74172       -0.65856
F         -4.57325       -2.76161       -1.41931
C         -5.07152       -1.13910        0.21403
H         -6.09298       -1.49145        0.29013
C         -4.63294       -0.07806        0.98841
F         -5.46305        0.51598        1.84212
C         -3.32317        0.37562        0.89687
F         -2.93346        1.38516        1.66966
