43
COMP41_300003.log	Energy: -1571410.2412473
C          1.61434       -1.34989       -0.53519
C          0.22737       -0.92885       -0.36258
C         -0.80418       -1.63399        0.20672
C         -0.59341       -2.91367        0.80359
N         -0.40616       -3.95154        1.28702
C         -2.07293       -0.92934        0.17572
C         -3.32397       -1.34381        0.66034
C         -3.54351       -2.67769        1.32421
C         -4.36166       -0.43345        0.48305
S         -6.01994       -0.70691        0.99451
C         -6.50284        0.82924        0.38862
H         -7.53286        1.14913        0.47341
C         -5.48661        1.53764       -0.17358
C         -5.72296        2.82894       -0.73700
N         -5.94230        3.87370       -1.19016
C         -4.21267        0.83503       -0.13481
C         -2.96259        1.25280       -0.60986
C         -2.74649        2.59322       -1.26167
C         -1.92486        0.33893       -0.44037
S         -0.27844        0.61730       -0.95862
C          2.77471       -0.64813       -0.34170
C          3.16957        0.69658        0.15159
O          2.48356        1.63183        0.46609
N          4.59474        0.67554        0.13042
C          5.42219        1.78077        0.46536
O          6.40815        2.07917       -0.14977
O          4.94931        2.39055        1.54407
C          5.65083        3.57916        1.91889
C          5.13605       -0.55313       -0.35944
O          6.30031       -0.82464       -0.45356
C          3.94255       -1.38043       -0.64864
C          3.70429       -2.64405       -1.08863
H          4.41257       -3.40762       -1.37946
S          2.01120       -2.94307       -1.13011
H         -3.24152       -3.50201        0.67219
H         -4.59532       -2.83014        1.57824
H         -2.96413       -2.76385        2.24826
H         -3.08885        3.40712       -0.61682
H         -3.29679        2.67149       -2.20443
H         -1.68991        2.77055       -1.47763
H          5.13054        3.95429        2.79846
H          5.61495        4.31161        1.10939
H          6.69226        3.34803        2.15249
