46
COMP92_020000.log	Energy: -1912980.6630047
C          0.67733       -0.33205        0.30895
C         -0.78428       -0.51591        0.44825
C         -1.44158       -1.07342        1.50497
H         -0.96138       -1.39089        2.42197
C         -2.84386       -1.14954        1.27982
Cl        -3.93410       -1.77571        2.47169
C         -3.24544       -0.67741        0.05975
S         -1.86758       -0.12952       -0.84229
C         -4.59065       -0.61121       -0.50462
S         -5.43883       -2.04108       -1.00868
C         -6.80760       -1.12924       -1.50943
H         -7.67396       -1.62865       -1.92075
C         -6.63636        0.20707       -1.31299
H         -7.37050        0.96537       -1.55267
C         -5.36532        0.49420       -0.73959
Cl        -4.86820        2.10910       -0.35800
C          1.45233       -1.51379        0.19965
C          2.81198       -1.46685        0.01933
C          3.58235       -2.73733       -0.08248
O          3.04432       -3.82215        0.01229
N          4.95871       -2.61517       -0.29211
C          5.76028       -3.83307       -0.39798
C          5.65250       -1.40957       -0.41443
O          6.85316       -1.40625       -0.60071
C          4.85984       -0.15631       -0.30443
C          5.48892        1.06253       -0.41517
H          6.55975        1.08889       -0.58522
C          4.74296        2.25027       -0.30879
C          3.38427        2.20655       -0.08647
C          2.63415        3.48461        0.02245
O          3.17763        4.56408       -0.10630
N          1.27172        3.37569        0.29368
C          0.50256        4.60463        0.48453
C          0.57501        2.18062        0.50006
O         -0.57839        2.21956        0.87419
C          1.31255        0.90390        0.25298
C          2.71286        0.96637        0.03148
C          3.46602       -0.22189       -0.08618
H          0.96021       -2.47922        0.25107
H          5.09187       -4.68266       -0.28121
H          6.52548       -3.83876        0.38039
H          6.25305       -3.86661       -1.37151
H          5.22217        3.21882       -0.40030
H          1.11431        5.43629        0.14343
H          0.25263        4.73171        1.54054
H         -0.42364        4.54307       -0.08755
