50
COMP97_000000.log	Energy: -1384755.5582229
C         -0.77497        0.07777        0.16584
C          0.67888        0.24280        0.34182
C          1.35595        0.96728        1.28590
H          0.85720        1.61678        1.99440
C          2.75647        0.77614        1.24415
H          3.44435        1.25115        1.93379
C          3.16049       -0.09030        0.25528
S          1.78517       -0.69016       -0.61612
C          4.49603       -0.51978       -0.12658
C          5.63317        0.04590        0.31413
C          6.97063       -0.41790       -0.02055
C          7.37596       -1.58983       -0.61190
H          6.68821       -2.37714       -0.89851
C          8.78409       -1.67435       -0.78505
H          9.28714       -2.52419       -1.23103
C          9.44032       -0.57222       -0.31843
H         10.50397       -0.37838       -0.32049
S          8.34732        0.58429        0.33562
C         -1.25118       -1.26252        0.17591
C         -2.58373       -1.56341        0.09523
C         -3.01270       -2.98928        0.12429
O         -2.21206       -3.89978        0.20049
N         -4.38803       -3.22551        0.05740
C         -4.86257       -4.60759        0.07787
C         -5.37153       -2.23833       -0.02676
O         -6.54666       -2.54385       -0.07784
C         -4.91444       -0.82351       -0.05112
C         -5.84233        0.18988       -0.13405
H         -6.89657       -0.06034       -0.17838
C         -5.41161        1.52625       -0.16285
C         -4.06865        1.83387       -0.11223
C         -3.66944        3.26209       -0.15849
O         -4.48722        4.16130       -0.20195
N         -2.30043        3.51132       -0.16559
C         -1.84844        4.89607       -0.28885
C         -1.28718        2.54358       -0.12932
O         -0.13485        2.90541       -0.24555
C         -1.70067        1.11501        0.03658
C         -3.09136        0.81379       -0.02217
C         -3.53610       -0.52651        0.00848
H          4.55449       -1.35541       -0.82099
H          5.57330        0.91628        0.96464
H         -0.54285       -2.07829        0.27586
H         -3.99270       -5.25756        0.13575
H         -5.43374       -4.81328       -0.82941
H         -5.51254       -4.76200        0.94135
H         -6.12529        2.34024       -0.22712
H         -2.72396        5.53795       -0.22965
H         -1.33825        5.03764       -1.24403
H         -1.14767        5.12579        0.51519
