59
COMP99_000003.log	Energy: -1645992.1705263
C          0.06560       -0.13573        0.11590
C         -1.35093       -0.53556        0.12598
C         -1.90481       -1.50381        0.93039
C         -3.26016       -1.75097        0.61729
C         -3.70381       -0.98986       -0.43973
S         -2.49271        0.05092       -1.05995
C         -5.08713       -1.31972       -0.70316
C         -5.49211       -2.27764        0.19568
C         -4.36232       -2.65840        1.13995
C         -3.98619       -4.14173        0.99052
C         -4.71404       -2.33071        2.60028
C         -6.84535       -2.66426        0.01029
C         -7.42697       -1.98640       -1.02492
H         -8.44018       -2.07633       -1.39200
S         -6.34004       -0.86856       -1.78927
C          1.00263       -1.20052        0.02533
C          2.34945       -0.97571       -0.06931
C          3.27533       -2.13418       -0.15913
O          2.91873       -3.29094       -0.10073
N          4.62558       -1.81258       -0.31925
C          5.54568       -2.92832       -0.45785
O          5.84097       -3.40528       -1.51315
O          5.96943       -3.29412        0.73823
C          6.89041       -4.39123        0.73986
C          5.19101       -0.53391       -0.36517
O          6.38971       -0.39629       -0.47795
C          4.23510        0.59824       -0.26273
C          4.71214        1.88862       -0.31333
H          5.77697        2.05419       -0.43436
C          3.81709        2.96553       -0.21024
C          2.46759        2.74059       -0.04841
C          1.56456        3.91027        0.06722
O          1.92686        5.06162       -0.04575
N          0.23402        3.60027        0.33846
C         -0.64722        4.71617        0.63570
O         -0.68447        5.25656        1.70120
O         -1.35915        5.00577       -0.43853
C         -2.31096        6.06075       -0.26101
C         -0.34143        2.32747        0.46094
O         -1.49067        2.23808        0.83232
C          0.54878        1.17165        0.15208
C          1.94410        1.42326        0.00193
C          2.85162        0.34617       -0.11185
H         -1.34817       -1.99268        1.72298
H         -3.73903       -4.37703       -0.04878
H         -4.81939       -4.78141        1.30162
H         -3.12063       -4.38396        1.61704
H         -4.96861       -1.27299        2.71207
H         -3.86623       -2.55392        3.25732
H         -5.56800       -2.93145        2.93209
H         -7.37105       -3.40253        0.60498
H          0.63926       -2.22250        0.00501
H          7.12096       -4.57200        1.78823
H          7.79162       -4.12301        0.18453
H          6.42682       -5.26993        0.28694
H          4.17009        3.99022       -0.25349
H         -2.80233        6.17163       -1.22603
H         -1.80082        6.98342        0.02304
H         -3.03171        5.78529        0.51162
