29
COMP17_000000.log	Energy: -1182287.3928111
C          3.17555        0.53969       -0.00305
C          1.79110        0.15377       -0.00664
C          1.27694       -1.12342       -0.01279
H          1.89800       -2.01138       -0.01679
C         -0.13492       -1.15485       -0.01380
H         -0.70661       -2.07506       -0.01859
C         -0.71165        0.09483       -0.00824
S          0.51117        1.32976       -0.00303
C         -2.11157        0.48324       -0.00582
C         -3.14257       -0.38032       -0.00260
C         -4.54616       -0.00285        0.00044
C         -5.13046        1.24128        0.00196
H         -4.56389        2.16538        0.00075
C         -6.55007        1.19481        0.00520
H         -7.18310        2.07429        0.00662
C         -7.03690       -0.08080        0.00583
H         -8.06978       -0.40022        0.00787
S         -5.76794       -1.24141        0.00427
C          3.78034        1.73950       -0.00237
C          5.25115        1.67904        0.00345
C          5.76982        0.44926        0.00752
H          6.80120        0.12665        0.01188
S          4.45510       -0.74629        0.00493
O          4.41465       -1.47963        1.26441
O          4.42464       -1.48564       -1.25134
H         -2.31304        1.55218       -0.00620
H         -2.93664       -1.44874       -0.00154
H          3.25082        2.68561       -0.00602
H          5.85193        2.58162        0.00411
