50
COMP77_420003.log	Energy: -2532670.6481079
C         -0.65060       -1.83066        0.51158
C          0.62218       -1.17851        0.79024
C          0.91487       -0.25722        1.75603
Cl        -0.20114        0.36006        2.92196
C          2.27485        0.17159        1.75039
O          2.80117        1.07404        2.60092
C          3.02538       -0.45048        0.78199
S          2.03983       -1.54726       -0.14009
C          4.43283       -0.21881        0.53821
C          5.21019       -0.89718       -0.32930
C          6.59972       -0.56846       -0.60314
C          7.17717        0.67932       -0.64497
O          6.56515        1.86583       -0.45631
C          8.57020        0.62850       -0.96392
Cl         9.54284        2.05286       -1.07985
C          9.02966       -0.63416       -1.16979
H         10.03884       -0.93119       -1.41565
S          7.77648       -1.79788       -0.98446
C         -1.87667       -1.27426        0.22605
C         -2.15058        0.16911        0.01809
O         -1.27971        1.00867       -0.08106
C         -3.59605        0.50341       -0.14849
C         -4.10065        1.77970       -0.18742
C         -3.42799        3.06163        0.17839
O         -2.72163        3.21301        1.14004
O         -3.78179        4.03331       -0.67282
C         -3.23668        5.32281       -0.37932
S         -5.77113        1.78295       -0.59611
C         -5.81850        0.06618       -0.70628
C         -7.07324       -0.59695       -1.17071
O         -7.12528       -1.46719       -1.99831
O         -8.13842       -0.03032       -0.58636
C         -9.40602       -0.53529       -1.01492
C         -4.59428       -0.48895       -0.42050
C         -4.31476       -1.94359       -0.25501
O         -5.17473       -2.79943       -0.30003
C         -2.89901       -2.26272        0.04926
C         -2.43592       -3.53892        0.19024
H         -3.01167       -4.44908        0.09127
S         -0.76519       -3.56405        0.55749
H          2.09385        1.44357        3.14877
H          4.86777        0.55915        1.16327
H          4.79110       -1.73945       -0.88024
H          5.60714        1.72383       -0.47301
H         -3.63134        5.98807       -1.14580
H         -2.14593        5.28809       -0.42293
H         -3.54695        5.65093        0.61552
H        -10.14842        0.02889       -0.45235
H         -9.48267       -1.60204       -0.79408
H         -9.53505       -0.38054       -2.08871
