50
COMP92_130002.log	Energy: -1670702.7575853
C          0.59627       -0.15532        0.29805
C         -0.85655       -0.29154        0.54086
C         -1.46028       -0.56566        1.72596
F         -0.80243       -0.70843        2.86976
C         -2.87809       -0.68519        1.65799
C         -3.67247       -0.99488        2.79971
N         -4.30314       -1.24571        3.73941
C         -3.34416       -0.50282        0.36932
S         -2.03715       -0.18766       -0.71599
C         -4.72128       -0.52750       -0.10161
S         -6.00849        0.09048        0.87351
C         -7.19119       -0.25080       -0.32576
H         -8.23798       -0.04110       -0.16362
C         -6.61636       -0.80551       -1.42269
F         -7.27769       -1.18084       -2.50904
C         -5.20306       -0.97270       -1.31997
C         -4.42673       -1.55957       -2.36109
N         -3.80861       -2.03180       -3.22059
C          1.34027       -1.35505        0.20518
C          2.69306       -1.33779       -0.02151
C          3.42767       -2.63150       -0.10679
O          2.89947       -3.70873        0.04045
N          4.79901       -2.51154       -0.35793
O          5.46981       -3.68358       -0.57527
C          6.01906       -4.19276        0.64236
C          5.54868       -1.33857       -0.51321
O          6.74338       -1.37170       -0.69697
C          4.76701       -0.07422       -0.41784
C          5.41904        1.12739       -0.56552
H          6.48778        1.12668       -0.75043
C          4.70005        2.33287       -0.47529
C          3.34520        2.32165       -0.23385
C          2.63398        3.62174       -0.13392
O          3.16838        4.69566       -0.28710
N          1.26914        3.51463        0.14739
O          0.62228        4.69229        0.40422
C          0.03970        5.22610       -0.78670
C          0.50103        2.35588        0.31814
O         -0.68093        2.43840        0.56052
C          1.24506        1.06606        0.16729
C          2.64478        1.09862       -0.07818
C          3.37244       -0.10926       -0.17566
H          0.83647       -2.30989        0.31302
H          6.51709       -5.11790        0.35152
H          5.22443       -4.40911        1.36235
H          6.74919       -3.49117        1.05625
H          5.19833        3.28932       -0.59064
H         -0.43879        6.15141       -0.46529
H         -0.71118        4.53911       -1.18801
H          0.81332        5.44518       -1.52828
