46
COMP92_100000.log	Energy: -1460704.6299008
C          0.40104       -0.28961        0.35939
C         -1.04917       -0.47611        0.54514
C         -1.65848       -1.16163        1.55473
F         -0.98084       -1.68438        2.57963
C         -3.06807       -1.26156        1.45856
H         -3.69077       -1.73446        2.20754
C         -3.53441       -0.65382        0.32463
S         -2.23965        0.02518       -0.61145
C         -4.90829       -0.54517       -0.14175
S         -6.05316       -1.81438        0.17495
C         -7.31643       -0.96438       -0.63294
H         -8.31517       -1.36736       -0.70985
C         -6.85063        0.21513       -1.12383
F         -7.60710        1.08265       -1.79874
C         -5.48141        0.47431       -0.85327
H         -4.97066        1.38316       -1.14657
C          1.16687       -1.47582        0.21628
C          2.51607       -1.43691       -0.02329
C          3.27035       -2.71244       -0.17054
O          2.72841       -3.79413       -0.06424
N          4.63744       -2.59876       -0.43928
C          5.42437       -3.82141       -0.58970
C          5.33464       -1.39747       -0.57998
O          6.52695       -1.40135       -0.81440
C          4.55689       -0.13902       -0.42901
C          5.19105        1.07574       -0.55819
H          6.25416        1.09490       -0.77186
C          4.45974        2.26729       -0.41106
C          3.11083        2.23185       -0.13162
C          2.37926        3.51471        0.02390
O          2.92416        4.59134       -0.12244
N          1.03107        3.41406        0.36327
C          0.28416        4.64655        0.60898
C          0.33085        2.22275        0.57985
O         -0.80618        2.27154        1.00260
C          1.04294        0.94276        0.28613
C          2.43412        0.99677        0.00515
C          3.17369       -0.19539       -0.15190
H          0.67423       -2.43935        0.28684
H          4.74960       -4.66717       -0.48231
H          6.20284       -3.85547        0.17499
H          5.90006       -3.83370       -1.57196
H          4.94219        3.23306       -0.51379
H          0.90291        5.48006        0.28556
H          0.05315        4.73957        1.67265
H         -0.65240        4.62035        0.05065
