54
COMP87_100000.log	Energy: -1464167.4682901
C         -0.20037        0.46293       -0.19331
C         -1.66023        0.58944       -0.25154
C         -2.39261        1.64336       -0.73277
H         -1.96907        2.53707       -1.17370
C         -3.78215        1.41145       -0.63524
F         -4.66927        2.32001       -1.06383
C         -4.14892        0.20626       -0.09093
S         -2.70528       -0.67072        0.32635
C         -5.45473       -0.37308        0.15870
C         -6.62902        0.21736       -0.13839
C         -7.93679       -0.36183        0.10662
C         -8.30529       -1.55887        0.66678
F         -7.41982       -2.45918        1.11530
C         -9.70033       -1.79609        0.74635
H        -10.13129       -2.69659        1.16454
C        -10.40796       -0.75089        0.23255
H        -11.48140       -0.65011        0.15770
S         -9.37912        0.50524       -0.33943
C          0.42731       -0.78410       -0.27266
C          1.81344       -0.91015       -0.23769
C          2.61420        0.22685       -0.13267
C          4.06131        0.48401       -0.00519
C          4.16857        1.98991        0.17732
O          5.15426        2.69309        0.29688
N          2.88814        2.49148        0.13199
C          2.57850        3.89391        0.25311
C          1.95931        1.47312       -0.03099
C          0.58695        1.61705       -0.05906
C          5.14724       -0.33931       -0.05442
C          5.06487       -1.79048       -0.50565
O          4.10384       -2.43250       -0.88826
N          6.34157       -2.29515       -0.46457
C          6.67755       -3.64535       -0.84071
C          7.24241       -1.33956       -0.00925
C          8.59781       -1.52176        0.20023
C          9.32686       -0.44055        0.69568
H         10.39310       -0.55192        0.86865
C          8.69830        0.76854        0.97257
C          7.33106        0.93734        0.75216
C          6.57738       -0.12058        0.24162
H         -5.45681       -1.35642        0.61799
H         -6.62604        1.19958       -0.60003
H         -0.17283       -1.68072       -0.39462
H          2.26746       -1.88491       -0.32050
H          3.52281        4.42892        0.35751
H          1.95525        4.07829        1.13488
H          2.05370        4.25121       -0.63921
H          0.12552        2.59222        0.05519
H          5.76017       -4.13214       -1.17285
H          7.09344       -4.19201        0.01259
H          7.40762       -3.64635       -1.65691
H          9.07479       -2.47401       -0.00690
H          9.27529        1.60048        1.36318
H          6.85968        1.88515        0.95830
