44
COMP51_300230.log	Energy: -2431988.6488980
C         -1.73012       -0.61265        0.42095
C         -0.29512       -0.40562        0.25966
C          0.37649        0.78229        0.37524
C         -0.27381        1.95000        0.87900
N         -0.82117        2.85641        1.35091
C          1.79804        0.65171        0.12190
C          2.79097        1.63983        0.11203
C          2.42670        3.09191        0.09908
O          1.53706        3.54495       -0.57614
O          3.23155        3.81602        0.88103
C          2.96359        5.22436        0.89545
C          4.11506        1.23020       -0.03243
S          5.52176        2.27310        0.01190
C          6.55961        0.92900       -0.26957
H          7.63252        1.06896       -0.28577
C          5.91345       -0.26099       -0.39775
C          6.65686       -1.47988       -0.46709
N          7.31347       -2.43489       -0.45662
C          4.47028       -0.11857       -0.29046
C          3.46310       -1.08664       -0.40150
C          3.76781       -2.44962       -0.93666
O          4.53283       -2.65260       -1.84553
O          3.05489       -3.39789       -0.32094
C          3.25573       -4.72983       -0.81093
C          2.15002       -0.69620       -0.13474
S          0.74771       -1.73941       -0.13371
C         -2.41141       -1.49209        1.22811
Cl        -1.66669       -2.58802        2.33277
N         -3.76373       -1.46468        1.16122
C         -4.14840       -0.56522        0.29615
S         -2.88450        0.30925       -0.49062
C         -5.54585       -0.29630       -0.00307
S         -6.82744       -1.14036        0.80347
C         -7.95278       -0.23103       -0.12449
H         -9.02030       -0.35789       -0.02304
C         -7.27903        0.61969       -0.95132
Cl        -8.04324        1.70963       -2.05079
N         -5.92233        0.58605       -0.88648
H          3.68498        5.64736        1.59248
H          1.94140        5.40358        1.23451
H          3.09465        5.64626       -0.10330
H          2.61151       -5.36156       -0.20185
H          4.30367       -5.01284       -0.69381
H          2.97861       -4.79276       -1.86534
