32
COMP52_130400.log	Energy: -1740362.3263598
C         -1.16019       -0.14524        0.21717
C          0.22316        0.28569        0.20909
C          0.75979        1.45440        0.67126
F          0.04062        2.41842        1.23014
C          2.17181        1.56661        0.53112
C          2.90632        2.69382        1.00343
N          3.49584        3.61576        1.38469
C          2.72429        0.44099       -0.04812
S          1.49199       -0.69646       -0.46793
C          4.12499        0.15664       -0.31972
S          5.17762        1.35153       -0.98796
C          6.51882        0.27614       -1.00240
H          7.49156        0.58979       -1.35120
C          6.16379       -0.94306       -0.52170
F          6.98843       -1.97449       -0.40689
C          4.79663       -1.03676       -0.12524
C          4.23037       -2.21294        0.44697
N          3.76540       -3.16715        0.91265
C         -1.65996       -1.39852        0.51554
O         -0.97478       -2.49006        0.88906
N         -3.00445       -1.54459        0.41298
C         -3.55728       -0.42024        0.04953
S         -2.48115        0.91080       -0.19721
C         -4.99037       -0.25960       -0.13244
S         -6.08490       -1.57594        0.12202
C         -7.37953       -0.51788       -0.29554
H         -8.40622       -0.85514       -0.30446
C         -6.88574        0.72684       -0.58828
O         -7.57438        1.82450       -0.95666
N         -5.53657        0.86813       -0.49539
H         -0.05892       -2.26418        1.10196
H         -8.51484        1.61347       -0.98587
