41
COMP41_300002.log	Energy: -1500269.9951434
C         -2.07825       -0.98067        0.37222
C         -0.65204       -0.69618        0.25009
C          0.36529       -1.56218       -0.07282
C          0.11408       -2.92439       -0.41673
N         -0.09807       -4.03045       -0.69574
C          1.67818       -0.94228       -0.06662
C          2.92879       -1.51765       -0.34575
C          3.10219       -2.96754       -0.71475
C          4.01510       -0.65152       -0.26049
S          5.68238       -1.11718       -0.56085
C          6.22947        0.48170       -0.23884
H          7.28317        0.71889       -0.30077
C          5.22950        1.34677        0.08074
C          5.51622        2.71356        0.38129
N          5.77685        3.81754        0.62272
C          3.91486        0.72286        0.07759
C          2.66749        1.29806        0.35162
C          2.50252        2.75201        0.70786
C          1.58022        0.43053        0.27311
S         -0.07416        0.90590        0.57198
C         -3.15491       -0.19806        0.04850
C         -3.40487        1.13016       -0.58190
O         -2.65115        1.97622       -0.98960
N         -4.80757        1.22277       -0.58658
O         -5.44806        2.23907       -1.22052
C         -5.75162        3.29480       -0.30435
C         -5.50318        0.11245       -0.07329
O         -6.69892        0.00047       -0.00241
C         -4.40635       -0.79674        0.34581
C         -4.30754       -2.02757        0.90939
H         -5.09660       -2.69831        1.22066
S         -2.65367       -2.47481        1.07637
H          2.70760       -3.62897        0.06162
H          4.15597       -3.21964       -0.85642
H          2.57851       -3.20778       -1.64465
H          2.89786        3.40127       -0.07850
H          3.03518        2.99833        1.63139
H          1.45141        3.01419        0.85162
H         -6.25326        4.05075       -0.90910
H         -4.83297        3.70697        0.12387
H         -6.42391        2.93783        0.48152
