45
COMP21_300430.log	Energy: -1699727.8637846
C         -2.81982       -0.53787       -0.26790
C         -1.35953       -0.36238       -0.26542
C         -0.68586        0.82733       -0.26588
C         -1.41732        2.05458       -0.25212
N         -2.07447        3.00940       -0.21639
C          0.75620        0.66456       -0.18668
C          1.78333        1.62141       -0.18880
C          1.58604        3.07156       -0.48319
O          2.23667        3.95350        0.03126
O          0.67348        3.26098       -1.43007
C          0.33560        4.62331       -1.71210
C          3.08626        1.18538        0.05276
S          4.49021        2.21799        0.22193
C          5.50267        0.84044        0.43637
H          6.55850        0.97293        0.63343
C          4.84885       -0.35172        0.39209
C          5.52554       -1.57076        0.70416
N          6.10412       -2.52467        1.01898
C          3.42585       -0.18561        0.14903
C          2.41857       -1.14943        0.02015
C          2.76101       -2.59645       -0.14543
O          3.63784       -2.99259       -0.87137
O          1.95295       -3.38752        0.56790
C          2.19485       -4.79217        0.42411
C          1.09939       -0.70877       -0.07890
S         -0.31261       -1.73664       -0.13834
C         -3.61700       -0.05584        0.82374
N         -3.15630        0.53345        1.92048
S         -4.45766        0.89838        2.83131
N         -5.64592        0.31041        1.87963
C         -5.04996       -0.19001        0.80240
C         -5.69977       -0.82360       -0.29805
H         -6.78026       -0.92375       -0.30750
C         -4.91771       -1.28636       -1.30708
O         -5.36714       -1.91433       -2.42764
C         -3.47483       -1.15020       -1.30249
O         -2.79422       -1.62756       -2.35825
H         -0.42261        4.57537       -2.49107
H          1.21955        5.16573       -2.05336
H         -0.07313        5.09729       -0.81792
H          1.48002       -5.27803        1.08621
H          3.22044       -5.02474        0.71759
H          2.03573       -5.09934       -0.61191
H         -6.33081       -1.96002       -2.42617
H         -3.42944       -2.00529       -2.98557
