29
COMP59_000210.log	Energy: -2006453.7051404
C         -0.21538        0.44686        0.14301
C          1.18349        0.06195        0.18656
C          1.67939       -1.14638        0.62902
C          3.07802       -1.24378        0.47532
C          3.62876       -0.11062       -0.08431
S          2.46059        1.09428       -0.43012
C          5.06083       -0.28095       -0.17907
C          5.39722       -1.52128        0.31528
C          4.16024       -2.25266        0.78397
H          4.20556       -2.48917        1.85386
H          4.01022       -3.19738        0.24810
C          6.79303       -1.77395        0.25358
C          7.47298       -0.71745       -0.28491
H          8.53780       -0.62831       -0.45054
S          6.43108        0.59972       -0.72562
C         -0.83825        1.67138        0.22761
Cl        -0.02020        3.18241        0.41285
N         -2.19345        1.68617        0.17712
C         -2.65254        0.47321        0.04970
S         -1.44779       -0.76780       -0.03931
C         -4.06931        0.15976       -0.01699
S         -5.27548        1.40583        0.06183
C         -6.48251        0.18926       -0.08498
H         -7.53772        0.41808       -0.09572
C         -5.88543       -1.03244       -0.17803
Cl        -6.74796       -2.52156       -0.33874
N         -4.52657       -1.05590       -0.14075
H          1.04733       -1.91620        1.05865
H          7.27808       -2.68337        0.58808
