65
COMP86_000020.log	Energy: -1056139.3036467
C          0.58697        0.53151       -0.43007
C          2.06451        0.61440       -0.51526
C          2.86461       -0.38084        0.07036
C          4.24004       -0.29525       -0.02544
C          5.30766       -1.25241        0.52573
O          5.13520       -1.55331        1.89009
C          5.11115       -0.44674        2.76558
O          5.38648       -2.46988       -0.14669
C          4.23703       -3.29242       -0.10190
C          6.59206       -0.49726        0.20053
C          7.88936       -0.86444        0.50453
C          8.92904       -0.02874        0.09101
H          9.95775       -0.29124        0.31894
C          8.65729        1.14207       -0.61654
C          7.34562        1.50496       -0.92363
C          6.31336        0.67464       -0.50663
C          4.85066        0.79846       -0.65149
C          4.07458        1.79020       -1.23428
C          2.68674        1.68380       -1.17003
C         -0.06835       -0.69799       -0.54448
C         -1.45476       -0.80555       -0.46772
C         -2.23183        0.33748       -0.27715
C         -3.66900        0.61338       -0.08250
C         -3.74136        2.11420        0.15861
O         -4.70944        2.82974        0.33763
N         -2.45468        2.59374        0.09008
C         -2.11462        3.98524        0.24711
C         -1.55103        1.56630       -0.14858
C         -0.17740        1.68872       -0.22358
C         -4.77080       -0.18990       -0.10970
C         -4.73081       -1.63152       -0.59479
O         -3.79840       -2.28078       -1.03239
N         -6.01195       -2.11930       -0.50738
C         -6.38332       -3.45674       -0.89475
C         -6.87869       -1.15991        0.00206
C         -8.22752       -1.32661        0.26089
C         -8.92034       -0.24535        0.80550
H         -9.98082       -0.34458        1.01718
C         -8.26291        0.94857        1.08030
C         -6.90268        1.10171        0.80962
C         -6.18504        0.04363        0.25008
H          2.39973       -1.18906        0.62714
H          4.97039       -0.85549        3.76778
H          4.28533        0.23912        2.53650
H          6.05553        0.11217        2.73296
H          4.55451       -4.27080       -0.46725
H          3.44575       -2.90906       -0.75924
H          3.85325       -3.39375        0.91850
H          8.08577       -1.78229        1.04999
H          9.47708        1.78072       -0.93212
H          7.14278        2.41975       -1.47345
H          4.53312        2.63976       -1.73230
H          2.07215        2.44165       -1.64770
H          0.51357       -1.59574       -0.72959
H         -1.92809       -1.76801       -0.58020
H         -3.04307        4.53241        0.41258
H         -1.62262        4.36613       -0.65424
H         -1.44892        4.12649        1.10549
H          0.30326        2.65239       -0.08855
H         -5.48697       -3.94996       -1.27175
H         -7.14462       -3.43197       -1.68156
H         -6.77379       -4.01349       -0.03593
H         -8.72613       -2.26781        0.05393
H         -8.81078        1.78143        1.50912
H         -6.40964        2.03836        1.01529
