50
COMP97_120000.log	Energy: -2086036.7880563
C          1.65271       -0.14807        0.17332
C          0.20883       -0.07308        0.48699
C         -0.36398        0.17140        1.69930
Cl         0.50994        0.53014        3.14248
C         -1.78312        0.13956        1.65079
F         -2.52013        0.36262        2.73858
C         -2.30582       -0.13907        0.41768
S         -1.00018       -0.36722       -0.71062
C         -3.68234       -0.25475       -0.02718
C         -4.76029       -0.12358        0.76901
C         -6.13766       -0.22851        0.32256
C         -6.66053       -0.46587       -0.92071
F         -5.92247       -0.65714       -2.01429
C         -8.08168       -0.49482       -0.96802
Cl        -8.95650       -0.77747       -2.42901
C         -8.64535       -0.27747        0.25173
H         -9.69773       -0.24684        0.49312
S         -7.44339       -0.03596        1.45762
C          2.25139       -1.42982        0.21778
C          3.59128       -1.60135       -0.02608
C          4.17863       -2.96857        0.03547
O          3.50244       -3.94536        0.28742
N          5.54978       -3.06839       -0.21469
C          6.17505       -4.38901       -0.16839
C          6.39624       -1.99796       -0.50918
O          7.58010       -2.18507       -0.70811
C          5.78360       -0.64405       -0.56590
C          6.56816        0.44974       -0.85118
H          7.62760        0.30416       -1.03185
C          5.99375        1.73303       -0.90234
C          4.64766        1.90765       -0.66991
C          4.08110        3.28005       -0.72751
O          4.76980        4.25146       -0.96951
N          2.71182        3.39110       -0.48942
C          2.10034        4.71850       -0.54248
C          1.84099        2.33276       -0.21730
O          0.65787        2.55820       -0.06663
C          2.43075        0.96170       -0.13157
C          3.81816        0.79936       -0.37574
C          4.40085       -0.48573       -0.32396
H         -3.82225       -0.45545       -1.08454
H         -4.62064        0.07747        1.82631
H          1.64368       -2.29621        0.45728
H          5.39782       -5.11919        0.04376
H          6.93918       -4.40821        0.61105
H          6.65028       -4.60245       -1.12753
H          6.59890        2.60546       -1.12350
H          2.88923        5.44064       -0.73776
H          1.61064        4.93336        0.40897
H          1.34990        4.74857       -1.33466
