46
COMP81_200011.log	Energy: -1866388.4333247
C          0.02475        0.03848       -0.00809
C          1.49682        0.03035       -0.01701
C          2.37610        0.97471        0.40849
Cl         1.92283        2.48035        1.14372
C          3.76592        0.61671        0.26122
C          4.89836        1.35059        0.61001
H          4.80225        2.33529        1.05535
C          6.13672        0.77429        0.36961
S          7.70115        1.48360        0.71335
C          8.51556        0.07688        0.09113
H          9.59563        0.02786        0.08679
C          7.65894       -0.86869       -0.34875
Cl         8.16265       -2.38428       -1.02306
C          6.26677       -0.51284       -0.20903
C          5.13419       -1.24758       -0.55493
H          5.22991       -2.23418       -0.99638
C          3.89687       -0.67173       -0.31214
S          2.33500       -1.37867       -0.64884
C         -0.68221       -1.08457        0.43339
C         -2.07381       -1.10962        0.45185
C         -2.79482        0.00511        0.02258
C         -4.22770        0.31914       -0.16058
C         -4.24330        1.70591       -0.79121
O         -5.17598        2.41139       -1.11910
N         -2.92973        2.09242       -0.89572
H         -2.67074        2.99069       -1.27203
C         -2.05732        1.11273       -0.44697
C         -0.67786        1.15805       -0.47058
C         -5.36156       -0.36603        0.16130
C         -5.35635       -1.61085        1.04429
O         -4.43244       -2.18980        1.58023
N         -6.66881       -1.97724        1.19405
H         -6.93505       -2.77245        1.75258
C         -7.52905       -1.14867        0.48632
C         -8.90178       -1.27286        0.37513
C         -9.57111       -0.34813       -0.42474
H        -10.64917       -0.41900       -0.53327
C         -8.86841        0.65282       -1.08878
C         -7.48466        0.76684       -0.96270
C         -6.78664       -0.13464       -0.15525
H         -0.13778       -1.95100        0.79537
H         -2.59133       -1.98177        0.81861
H         -0.15395        2.02582       -0.85546
H         -9.43423       -2.06812        0.88732
H         -9.40131        1.36149       -1.71429
H         -6.95517        1.55600       -1.47277
