42
COMP61_000031.log	Energy: -1334178.8042768
C          2.81304        0.75632       -0.00822
C          1.37917        0.61613       -0.00584
C          0.72806       -0.57720       -0.00996
H          1.25065       -1.52406       -0.01423
C         -0.70035       -0.43357       -0.00703
C         -1.68305       -1.44748       -0.01260
C         -1.37844       -2.91108       -0.01018
O         -2.23702       -3.76431       -0.08439
O         -0.08160       -3.18663        0.08937
C          0.28588       -4.56741        0.08698
C         -3.02309       -1.06190       -0.02068
S         -4.40909       -2.12822       -0.04351
C         -5.47814       -0.76048       -0.02197
H         -6.54768       -0.92941       -0.02855
C         -4.85824        0.43881       -0.00157
H         -5.36484        1.39080        0.01533
C         -3.42209        0.30639       -0.00180
C         -2.44540        1.32112        0.00889
C         -2.87677        2.74919        0.03948
O         -4.01694        3.14272        0.13797
O         -1.83622        3.58940       -0.05241
C         -2.15071        4.98149       -0.00984
C         -1.09724        0.93450       -0.00279
S          0.29982        1.99235       -0.00277
C          3.77865       -0.22059       -0.00646
C          3.96789       -1.66212        0.00083
O          3.19829       -2.61044        0.00424
N          5.37883       -1.78442        0.00323
H          5.83422       -2.68363        0.00621
C          6.01553       -0.55856       -0.00255
H          7.09464       -0.49089       -0.00128
C          5.06709        0.41148       -0.00848
C          4.87487        1.86358       -0.01286
O          5.63830        2.80252       -0.01721
N          3.45861        1.98190       -0.01163
H          3.00834        2.88490       -0.01875
H          1.37274       -4.56463        0.14735
H         -0.05662       -5.04793       -0.83221
H         -0.15776       -5.07589        0.94607
H         -1.19570        5.49683       -0.10143
H         -2.63636        5.23124        0.93598
H         -2.81395        5.24649       -0.83596
