52
COMP92_210003.log	Energy: -2274038.9313502
C          0.48679       -0.10406        0.22179
C         -0.95714       -0.34389        0.42296
C         -1.70659       -0.08368        1.53151
Cl        -1.12377        0.68340        2.95803
C         -3.05562       -0.51366        1.39184
F         -3.94068       -0.37302        2.36673
C         -3.33446       -1.09929        0.19151
S         -1.90671       -1.11469       -0.80063
C         -4.60714       -1.63249       -0.25850
S         -4.75729       -3.17341       -1.05297
C         -6.46252       -3.00386       -1.21267
H         -7.05504       -3.76831       -1.69399
C         -6.90183       -1.83678       -0.66940
Cl        -8.54592       -1.31666       -0.63318
C         -5.83838       -1.05617       -0.12979
F         -6.04522        0.12821        0.42546
C          1.33350       -1.23792        0.25042
C          2.69353       -1.11533        0.12296
C          3.53992       -2.33688        0.15787
O          3.09621       -3.45907        0.26337
N          4.91582       -2.11826        0.05700
C          5.76533       -3.29521        0.14142
O          6.17674       -3.72920        1.17585
O          5.98124       -3.76385       -1.07357
C          6.81245       -4.92985       -1.12912
C          5.56623       -0.89196       -0.11228
O          6.77214       -0.84384       -0.21811
C          4.68714        0.30567       -0.14755
C          5.25093        1.55140       -0.29586
H          6.32870        1.63607       -0.38249
C          4.42993        2.69264       -0.33215
C          3.06295        2.57216       -0.22626
C          2.23359        3.80114       -0.27156
O          2.68717        4.91914       -0.38701
N          0.85930        3.59284       -0.18097
C          0.02033        4.78095       -0.22460
O         -0.33776        5.36115        0.75633
O         -0.24907        5.07701       -1.48247
C         -1.07571        6.23349       -1.66218
C          0.18224        2.37162       -0.09698
O         -1.02690        2.35900       -0.15209
C          1.04130        1.15645        0.03695
C          2.45164        1.30120       -0.07416
C          3.28352        0.15915       -0.03182
H          0.90385       -2.22469        0.38954
H          6.92448       -5.15357       -2.18842
H          6.32848       -5.75743       -0.60622
H          7.78157       -4.72186       -0.67140
H          4.85833        3.68275       -0.44405
H         -1.19553        6.33897       -2.73887
H         -0.58656        7.11259       -1.23787
H         -2.04196        6.07983       -1.17742
