54
COMP83_000002.log	Energy: -887216.0498772
C          2.83850       -0.32626       -0.18261
C          4.31345       -0.51775       -0.12271
C          4.96091       -0.27733        1.09394
C          6.33477       -0.43919        1.24743
C          7.01101       -0.19179        2.57241
C          7.06903       -0.84464        0.13154
H          8.14502       -0.97895        0.21496
C          6.44070       -1.06976       -1.08561
C          5.06112       -0.91526       -1.24313
C          4.43210       -1.14538       -2.59669
C          1.98402       -1.37108       -0.54602
C          0.59877       -1.22116       -0.56609
C          0.03120        0.00437       -0.21446
C         -1.34081        0.55214       -0.15191
C         -1.15953        2.04313        0.10505
O         -1.95308        2.96099        0.08647
N          0.17956        2.19575        0.38478
O          0.76126        3.41614        0.56447
C          0.94028        4.08257       -0.69054
C          0.91684        1.04659        0.11968
C          2.28867        0.91631        0.15934
C         -2.56267       -0.04888       -0.17478
C         -2.73479       -1.56149       -0.15480
O         -1.94405       -2.46184       -0.34019
N         -4.05534       -1.76775        0.18941
O         -4.64459       -2.99223        0.01823
C         -4.48115       -3.78308        1.19578
C         -4.80694       -0.59845        0.11104
C         -6.17922       -0.48607        0.20241
C         -6.72062        0.79350        0.08182
H         -7.79645        0.92543        0.14684
C         -5.89699        1.89554       -0.12964
C         -4.51168        1.75699       -0.22042
C         -3.93704        0.49157       -0.08825
H          4.36121        0.03038        1.94790
H          6.29804        0.15840        3.32444
H          7.79981        0.56313        2.48000
H          7.47807       -1.10639        2.95492
H          7.03712       -1.36686       -1.94513
H          5.18410       -1.06290       -3.38711
H          3.63880       -0.42073       -2.80220
H          3.98390       -2.14242       -2.67465
H          2.40993       -2.33619       -0.80064
H         -0.03338       -2.04923       -0.84623
H          1.44875        5.01517       -0.44356
H         -0.02822        4.29306       -1.15177
H          1.56524        3.48023       -1.35925
H          2.91801        1.75545        0.43586
H         -5.00369       -4.71657        0.98165
H         -4.93287       -3.28737        2.06165
H         -3.42145       -3.98051        1.37776
H         -6.79651       -1.36576        0.34304
H         -6.33508        2.88286       -0.23358
H         -3.88577        2.61852       -0.39285
