43
COMP41_400022.log	Energy: -1573272.2414162
C          2.05557        1.11110       -0.17597
C          0.67685        0.72226       -0.00456
C          0.07750       -0.48366       -0.30182
O          0.65872       -1.59738       -0.74201
C         -1.36602       -0.44023       -0.17076
C         -2.31303       -1.44712       -0.40677
O         -2.00614       -2.70081       -0.83487
C         -1.51684       -3.57391        0.17822
C         -3.65325       -1.12150       -0.22597
S         -4.97338       -2.23781       -0.46964
C         -6.11587       -1.00387       -0.00052
H         -7.17438       -1.23008        0.01427
C         -5.53692        0.18088        0.31196
O         -6.16407        1.31885        0.70419
C         -4.09484        0.15615        0.18832
C         -3.14663        1.15987        0.42752
O         -3.46465        2.41265        0.86124
C         -3.91859        3.29107       -0.16376
C         -1.81051        0.83701        0.23599
S         -0.49455        1.94893        0.50074
C          3.23845        0.40882       -0.15693
C          3.67788       -0.96067        0.13428
O          3.04045       -1.97457        0.36932
N          5.06936       -0.89623        0.11026
O          5.83139       -2.02094        0.13997
C          6.33866       -2.25155        1.45721
C          5.60850        0.36248       -0.24774
O          6.77982        0.60735       -0.36674
C          4.39867        1.20794       -0.37924
C          4.13940        2.52130       -0.57118
H          4.83180        3.33501       -0.73661
S          2.43302        2.79907       -0.50639
H          1.55315       -1.73477       -0.34585
H         -1.36619       -4.54008       -0.30444
H         -2.25219       -3.67593        0.98574
H         -0.56488       -3.21383        0.57809
H         -7.11382        1.15382        0.74338
H         -4.07245        4.25933        0.31434
H         -4.86351        2.93876       -0.58844
H         -3.16363        3.38686       -0.95376
H          6.91107       -3.17591        1.37520
H          5.51702       -2.38153        2.16812
H          6.99290       -1.43043        1.76424
