42
COMP71_400001.log	Energy: -1718611.1814489
C         -1.34659        1.17801       -0.31832
C          0.01623        0.73809       -0.09431
C          0.64451       -0.40770       -0.52378
O          0.03829       -1.43035       -1.13213
C          2.08413       -0.39492       -0.31808
C          3.03123       -1.38313       -0.63059
C          2.72177       -2.70742       -1.27700
C          4.35040       -1.07723       -0.30214
S          5.69603       -2.15870       -0.60483
C          6.80612       -1.00867        0.08565
H          7.86247       -1.24002        0.13471
C          6.20372        0.12326        0.51801
O          6.82754        1.18336        1.09766
C          4.76511        0.13101        0.31277
C          3.81710        1.11654        0.62785
C          4.12449        2.43757        1.28264
C          2.50123        0.81296        0.28882
S          1.15804        1.88623        0.60888
C         -2.58771        0.55448       -0.22502
C         -2.85752       -0.80877        0.23816
O         -1.98894       -1.65727        0.45823
C         -4.28118       -1.14237        0.44406
C         -4.72324       -2.34040        0.93139
H         -4.11660       -3.17812        1.24659
S         -6.43753       -2.39375        0.99803
C         -6.58273       -0.80549        0.35723
H         -7.54692       -0.34447        0.19295
C         -5.35780       -0.25729        0.11113
C         -5.11650        1.09485       -0.43355
O         -6.01178        1.86021       -0.74249
C         -3.67974        1.45245       -0.53129
C         -3.26745        2.70705       -0.85047
H         -3.90188        3.54700       -1.09919
S         -1.56216        2.84788       -0.79130
H         -0.79542       -1.61211       -0.62985
H          1.65647       -2.83574       -1.45141
H          3.07612       -3.52869       -0.64183
H          3.24450       -2.79126       -2.23788
H          7.77293        0.99875        1.14834
H          5.18745        2.56584        1.47283
H          3.59056        2.52298        2.23736
H          3.78588        3.26444        0.64598
