48
COMP97_330001.log	Energy: -1566873.4129846
C         -1.86569        0.14002        0.14297
C         -0.43188       -0.13502        0.38746
C          0.09091       -0.96353        1.34674
C         -0.73173       -1.75111        2.20681
N         -1.42938       -2.38086        2.88450
C          1.52339       -0.97942        1.35093
C          2.27795       -1.77057        2.26487
N          2.90463       -2.40909        3.00281
C          2.07314       -0.14869        0.39154
S          0.81457        0.64277       -0.49954
C          3.44882        0.15325        0.03430
C          4.54203       -0.42298        0.56960
C          5.91876       -0.12064        0.21399
C          6.47143        0.76375       -0.69586
C          5.71928        1.62954       -1.54151
N          5.09376        2.32842       -2.22368
C          7.90744        0.72531       -0.70849
C          8.72174        1.53835       -1.55543
N          9.38742        2.19439       -2.23990
C          8.41431       -0.17872        0.18394
H          9.45688       -0.39665        0.36787
S          7.17473       -0.98569        1.03944
C         -2.37820        1.37058        0.61317
C         -3.71176        1.67097        0.49687
C         -4.21342        2.97722        1.00918
O         -3.49960        3.81542        1.51576
N         -5.57881        3.18007        0.86537
H         -5.93413        4.06405        1.21211
C         -6.52477        2.32162        0.31513
O         -7.69449        2.63299        0.26049
C         -5.99159        1.02606       -0.18907
C         -6.85118        0.11040       -0.74803
H         -7.90714        0.35021       -0.81166
C         -6.35779       -1.11810       -1.22585
C         -5.01651       -1.41079       -1.14296
C         -4.53018       -2.71693       -1.65800
O         -5.24820       -3.56170       -2.14679
N         -3.15981       -2.91098       -1.55260
H         -2.80510       -3.78174       -1.93206
C         -2.19665       -2.04767       -1.05377
O         -1.02127       -2.33802       -1.12508
C         -2.71552       -0.77303       -0.46625
C         -4.10358       -0.48573       -0.57104
C         -4.60604        0.74370       -0.08601
H          3.56216        0.90877       -0.73676
H          4.42821       -1.18396        1.33529
H         -1.71759        2.08902        1.08824
H         -7.02457       -1.85325       -1.66360
