39
COMP55_000400.log	Energy: -1156223.0541353
C         -0.73843        0.10727       -0.30980
C          0.69106       -0.23034       -0.29567
C          1.60690        0.71208        0.18538
C          2.96328        0.38960        0.16675
N          4.05094        1.13465        0.58398
C          4.03984        2.46480        1.14092
C          5.19968        0.38732        0.38647
C          6.52336        0.72887        0.66342
C          7.50193       -0.21183        0.37115
H          8.54188        0.02405        0.57612
C          7.17695       -1.45902       -0.18234
C          5.85717       -1.79043       -0.45487
C          4.85520       -0.86257       -0.16950
C          3.41607       -0.86182       -0.30957
C          2.49022       -1.79529       -0.77417
C          1.14218       -1.47792       -0.77256
C         -1.31574        1.29306       -0.70615
O         -0.67266        2.37696       -1.18736
N         -2.66831        1.37233       -0.62109
C         -3.15620        0.25015       -0.16720
S         -1.99438       -0.98350        0.18695
C         -4.57719        0.02509        0.03845
S         -5.73904        1.26680       -0.29947
C         -6.97996        0.17653        0.20029
H         -8.02260        0.46044        0.19160
C         -6.42265       -1.01616        0.57578
O         -7.05495       -2.11907        1.02630
N         -5.06747       -1.09858        0.48340
H          1.24869        1.64478        0.61182
H          3.01651        2.83889        1.18305
H          4.63227        3.14737        0.52147
H          4.44930        2.46376        2.15715
H          6.78277        1.69119        1.09377
H          7.96721       -2.17105       -0.39791
H          5.60774       -2.75689       -0.88340
H          2.82328       -2.76113       -1.14288
H          0.41791       -2.19074       -1.15460
H          0.24624        2.12760       -1.36168
H         -8.00380       -1.94921        1.04976
