27
COMP22_210100.log	Energy: -1981692.2237376
C          2.21323        0.45455       -0.23927
C          0.85376       -0.08570       -0.35591
C          0.47552       -1.32122       -0.79861
Cl         1.53591       -2.53094       -1.41050
C         -0.93026       -1.50907       -0.73563
F         -1.50918       -2.64233       -1.12899
C         -1.62967       -0.43896       -0.25287
S         -0.52255        0.84335        0.14075
C         -3.06287       -0.32327       -0.07473
S         -4.17642       -1.59856       -0.48599
C         -5.53598       -0.66915        0.01371
H         -6.53566       -1.07268       -0.05649
C         -5.16793        0.55632        0.47402
Cl        -6.24526        1.76703        1.06441
C         -3.75936        0.74423        0.41983
F         -3.17820        1.87335        0.82187
C          3.18354       -0.14139        0.63629
N          2.97346       -1.19382        1.42093
S          4.37400       -1.47010        2.20170
N          5.29180       -0.27356        1.58818
C          4.51745        0.39326        0.73451
C          4.90199        1.53617       -0.02597
H          5.89889        1.95305        0.04226
C          3.95957        2.08134       -0.83258
F          4.22158        3.14989       -1.58088
C          2.63065        1.54783       -0.94039
F          1.81478        2.17835       -1.77908
