58
COMP91_300020.log	Energy: -1643431.4617501
C          1.25508       -0.15916       -0.21824
C         -0.22600       -0.15395       -0.17472
C         -0.98989       -0.04076        0.94979
C         -0.39885        0.18635        2.22818
N          0.12626        0.35143        3.24900
C         -2.40856       -0.14327        0.68041
C         -3.48900       -0.07636        1.56432
O         -3.32122        0.14210        2.89730
C         -3.10594       -1.03807        3.67105
C         -4.76478       -0.19590        1.02452
S         -6.25131       -0.12581        1.94073
C         -7.17776       -0.37205        0.50357
H         -8.25753       -0.41482        0.55622
C         -6.42456       -0.49129       -0.62419
C         -7.00984       -0.68503       -1.91260
N         -7.50968       -0.81934       -2.95013
C         -5.00277       -0.38768       -0.35579
C         -3.92071       -0.45776       -1.23926
O         -4.08807       -0.67740       -2.57174
C         -4.26520        0.50592       -3.35186
C         -2.64628       -0.34002       -0.69865
S         -1.16042       -0.42277       -1.61277
C          1.88822       -1.42415       -0.21546
C          3.25652       -1.53258       -0.19253
C          3.88371       -2.88365       -0.18736
O          3.21619       -3.89780       -0.21580
N          5.27931       -2.92103       -0.14365
C          5.94446       -4.22304       -0.13525
C          6.11666       -1.80342       -0.11742
O          7.32361       -1.93790       -0.09377
C          5.46442       -0.46691       -0.11866
C          6.23560        0.67187       -0.07613
H          7.31523        0.57393       -0.04121
C          5.62224        1.93867       -0.07186
C          4.25068        2.05243       -0.11841
C          3.63760        3.40612       -0.10356
O          4.30889        4.41640       -0.04294
N          2.24384        3.45390       -0.17331
C          1.59120        4.76262       -0.19330
C          1.39738        2.35033       -0.27508
O          0.20255        2.51687       -0.41687
C          2.02378        0.99616       -0.21177
C          3.43615        0.89659       -0.16762
C          4.05581       -0.37140       -0.16080
H         -2.95110       -0.70151        4.69584
H         -2.21455       -1.57526        3.33034
H         -3.97779       -1.70115        3.62138
H         -4.42006        0.16874       -4.37638
H         -3.37635        1.14523       -3.29602
H         -5.14478        1.06749       -3.02052
H          1.28883       -2.32883       -0.22196
H          5.17605       -4.99085       -0.09092
H          6.60497       -4.28913        0.73079
H          6.54341       -4.33840       -1.04106
H          6.21694        2.84464       -0.02949
H          2.35745        5.51849       -0.04006
H          0.84253        4.80732        0.59893
H          1.09437        4.91485       -1.15381
