32
COMP57_210000.log	Energy: -2155606.1937100
C         -2.48750       -0.15353       -0.00170
C         -1.13267        0.35493       -0.00502
C         -0.70280        1.65135       -0.01365
F         -1.52623        2.69568       -0.02066
C          0.70796        1.80802       -0.01489
Cl         1.44825        3.36445       -0.02591
C          1.38211        0.61252       -0.00717
S          0.24593       -0.70921        0.00264
C          2.81700        0.42379       -0.00648
C          3.42879       -0.77483       -0.00711
C          4.85603       -1.03779       -0.00557
C          5.96542       -0.22487        0.01468
Cl         5.97877        1.49999        0.04845
C          7.18828       -0.95615        0.00784
F          8.36545       -0.34256        0.02515
C          7.02867       -2.30360       -0.01699
H          7.80048       -3.05826       -0.02651
S          5.35793       -2.70708       -0.03238
C         -2.89152       -1.46639        0.00238
H         -2.22118       -2.31865        0.00307
N         -4.23511       -1.68454        0.00537
C         -4.88054       -0.55112        0.00363
S         -3.88932        0.87442       -0.00197
C         -6.33085       -0.44900        0.00592
S         -7.33246       -1.86982        0.01172
C         -8.71221       -0.84107        0.01161
H         -9.71563       -1.24236        0.01487
C         -8.32523        0.46607        0.00734
H         -8.99826        1.31437        0.00645
N         -6.97406        0.68474        0.00405
H          3.39402        1.34127       -0.00611
H          2.81352       -1.67437       -0.01037
