39
COMP21_100420.log	Energy: -1566291.4859854
C          2.57152        0.27210        0.16800
C          1.11752        0.11369        0.11229
C          0.22376        1.02025       -0.35193
F          0.58500        2.18181       -0.90034
C         -1.15819        0.65011       -0.22095
C         -2.32071        1.33763       -0.58882
O         -2.30946        2.56939       -1.17183
C         -2.05816        3.64317       -0.27063
C         -3.53543        0.70226       -0.36488
S         -5.10270        1.38388       -0.73964
C         -5.89492       -0.03883       -0.11539
H         -6.97206       -0.12400       -0.11838
C         -5.01920       -0.95958        0.33415
F         -5.38787       -2.13726        0.84729
C         -3.63241       -0.58716        0.20951
C         -2.46956       -1.27165        0.58079
O         -2.48540       -2.50066        1.17017
C         -2.67148       -3.58285        0.26321
C         -1.25405       -0.63592        0.36023
S          0.30731       -1.31892        0.73468
C          3.46894       -0.74980       -0.29571
N          3.11064       -1.92020       -0.81199
S          4.48799       -2.71371       -1.17963
N          5.58835       -1.60409       -0.70338
C          4.89889       -0.56968       -0.23522
C          5.45350        0.63580        0.28577
H          6.52956        0.76982        0.32383
C          4.58371        1.58234        0.72249
O          4.94099        2.78358        1.25450
C          3.14500        1.40942        0.67964
O          2.38718        2.40238        1.17631
H         -2.10460        4.55566       -0.86642
H         -1.06643        3.55333        0.18290
H         -2.82368        3.67630        0.51380
H         -2.61427       -4.49313        0.86130
H         -1.88207       -3.59172       -0.49736
H         -3.65171       -3.52520       -0.22026
H          5.90169        2.85864        1.29867
H          2.97606        3.10385        1.49208
