37
COMP47_240002.log	Energy: -2007101.8829515
C         -2.51850       -0.87251       -0.23010
C         -1.27345       -0.14652       -0.17013
C         -1.03166        1.20263       -0.37293
O         -1.90352        2.17422       -0.61371
C          0.37079        1.49130       -0.38202
Cl         0.94344        3.10094       -0.62414
C          1.18511        0.40735       -0.18124
S          0.22672       -1.02268        0.04757
C          2.63174        0.40765       -0.11329
C          3.38555       -0.69434        0.05571
C          4.83172       -0.76996        0.14246
C          5.82684        0.17843        0.16411
Cl         5.60582        1.89990        0.09128
C          7.15083       -0.35412        0.26822
O          8.27690        0.38579        0.30774
C          7.14951       -1.71680        0.32556
H          8.01047       -2.36359        0.40414
S          5.55195       -2.34822        0.25377
C         -3.82041       -0.50582        0.01487
C         -4.54208        0.68317        0.49055
O         -4.15202        1.80851        0.75385
N         -5.86964        0.27399        0.57727
O         -6.83162        1.06872        1.11152
C         -7.51483        1.79859        0.08679
C         -6.11608       -1.07122        0.21783
O         -7.19188       -1.60794        0.22386
C         -4.76563       -1.56069       -0.15004
C         -4.22158       -2.74065       -0.52457
H         -4.70534       -3.69255       -0.69369
S         -2.50987       -2.56677       -0.70570
H         -2.73566        2.06413       -0.09171
H          3.08875        1.38460       -0.21535
H          2.88635       -1.65940        0.13807
H          8.04185        1.32305        0.25921
H         -8.24969        2.40109        0.62103
H         -8.01955        1.11223       -0.59928
H         -6.81774        2.44770       -0.45136
