56
COMP91_200020.log	Energy: -2104485.1094674
C          1.35744       -0.10705       -0.14868
C         -0.12279       -0.12994       -0.11951
C         -0.90577       -0.50554        0.91858
Cl        -0.23061       -0.91914        2.46139
C         -2.32316       -0.46856        0.63003
C         -3.43741       -0.77022        1.42138
O         -3.34009       -1.18677        2.71609
C         -3.22417       -2.59947        2.86319
C         -4.69736       -0.60604        0.85532
S         -6.19471       -0.90601        1.70413
C         -7.10418       -0.48065        0.28753
H         -8.18460       -0.52062        0.30079
C         -6.32916       -0.12012       -0.75889
Cl        -7.01195        0.33036       -2.28884
C         -4.90956       -0.16788       -0.47456
C         -3.79343        0.12868       -1.26725
O         -3.88828        0.54546       -2.56208
C         -3.98638        1.96060       -2.70815
C         -2.53554       -0.03558       -0.70056
S         -1.04108        0.26069       -1.55194
C          2.00313       -1.33169       -0.44427
C          3.37145       -1.42414       -0.49195
C          4.00795       -2.73378       -0.80356
O          3.34956       -3.73069       -1.02191
N          5.40522       -2.75511       -0.83346
C          6.07915       -4.01536       -1.14064
C          6.23433       -1.65638       -0.60004
O          7.44249       -1.77337       -0.65493
C          5.57286       -0.36180       -0.28790
C          6.33863        0.75483       -0.04150
H          7.41917        0.67021       -0.08163
C          5.71803        1.98127        0.25684
C          4.34473        2.07776        0.30480
C          3.72757        3.39003        0.62848
O          4.39726        4.38021        0.84746
N          2.33411        3.42142        0.66981
C          1.67389        4.68435        0.99706
C          1.48450        2.33745        0.43113
O          0.28295        2.49497        0.50085
C          2.11916        1.02719        0.09784
C          3.53456        0.94528        0.05287
C          4.16327       -0.28334       -0.24361
H         -3.16707       -2.78860        3.93557
H         -2.31506       -2.97203        2.37835
H         -4.09965       -3.10875        2.44299
H         -4.03106        2.15115       -3.78088
H         -3.10955        2.45888       -2.27805
H         -4.89613        2.34157       -2.23154
H          1.40671       -2.21749       -0.63524
H          5.31722       -4.78285       -1.25285
H          6.76522       -4.27143       -0.33151
H          6.65240       -3.91160       -2.06425
H          6.30714        2.86984        0.45566
H          2.44479        5.44068        1.12182
H          1.09847        4.57144        1.91803
H          0.99130        4.96193        0.19210
