35
COMP47_210002.log	Energy: -2037227.2818805
C          2.90621        1.09201       -0.05505
C          1.47457        1.30021       -0.03033
C          0.81534        2.50125        0.01181
F          1.43909        3.67586        0.03622
C         -0.59500        2.40538        0.02664
Cl        -1.60483        3.80258        0.07521
C         -1.03537        1.10398       -0.00645
S          0.30875        0.00279       -0.05046
C         -2.41521        0.66330       -0.00488
C         -2.80309       -0.62327       -0.08105
C         -4.16189       -1.13295       -0.08060
C         -5.39264       -0.53128        0.04576
Cl        -5.70086        1.15205        0.26454
C         -6.47123       -1.45962       -0.01237
F         -7.73474       -1.06535        0.09296
C         -6.08395       -2.74969       -0.17966
H         -6.71525       -3.62254       -0.25170
S         -4.37083       -2.85289       -0.27029
C          3.64009       -0.06607       -0.09221
C          3.37890       -1.52400       -0.11221
O          2.34730       -2.15217       -0.10622
N          4.66654       -2.08733       -0.11714
O          4.85869       -3.42253       -0.27859
C          4.96973       -4.07045        0.99168
C          5.73724       -1.17394       -0.13742
O          6.90629       -1.45965       -0.15415
C          5.04691        0.13990       -0.10668
C          5.41311        1.44323       -0.08171
H          6.40533        1.87290       -0.08573
S          4.01498        2.45581       -0.04243
H         -3.14665        1.46015        0.05996
H         -2.03854       -1.39600       -0.15630
H          5.12803       -5.12316        0.75570
H          4.04498       -3.94949        1.56384
H          5.82712       -3.67845        1.54678
