55
COMP66_000032.log	Energy: -1051304.8072439
C         -2.22153       -0.39797        0.00208
C         -0.95080        0.32185       -0.00908
C          0.28443       -0.33247        0.14146
C          1.44204        0.41210        0.06973
C          2.87874       -0.08051        0.15389
C          3.14617       -0.72790        1.51949
O          3.77062       -0.23760        2.42214
O          2.55002       -1.92752        1.57529
C          2.67668       -2.62184        2.81813
C          3.18531       -1.10587       -0.94586
O          2.42843       -1.46307       -1.81151
O          4.44072       -1.55475       -0.81566
C          4.85742       -2.50608       -1.79658
C          3.66866        1.20689       -0.03731
C          5.04095        1.39323       -0.04267
C          5.53567        2.68296       -0.23350
H          6.60845        2.84973       -0.23965
C          4.66848        3.76153       -0.41095
C          3.28905        3.57382       -0.39684
C          2.79440        2.28841       -0.20717
C          1.41502        1.79518       -0.13958
C          0.19590        2.45438       -0.25418
C         -0.97898        1.71832       -0.18772
C         -3.50882        0.08515        0.11013
C         -4.26704        1.31533        0.27948
O         -3.98409        2.49887        0.34565
N         -5.60524        0.82742        0.30631
O         -6.67534        1.61731        0.60779
C         -7.07133        2.38350       -0.53318
C         -5.69560       -0.53988        0.21089
H         -6.65875       -1.02732        0.25913
C         -4.43330       -1.01951        0.07352
C         -3.69038       -2.25631       -0.10028
O         -3.99888       -3.41717       -0.24054
N         -2.34339       -1.78008       -0.11030
O         -1.31671       -2.66111       -0.27044
C         -1.03039       -2.86904       -1.65940
H          0.33070       -1.39924        0.30638
H          2.14827       -3.56413        2.68088
H          2.22428       -2.04125        3.62506
H          3.73003       -2.79848        3.04687
H          5.89675       -2.73222       -1.56220
H          4.77264       -2.07981       -2.79858
H          4.24393       -3.40796       -1.73527
H          5.71369        0.55556        0.10363
H          5.07454        4.75788       -0.55695
H          2.61484        4.41508       -0.52829
H          0.15141        3.52916       -0.40078
H         -1.93294        2.23082       -0.26349
H         -7.93701        2.95635       -0.19803
H         -7.35412        1.72328       -1.36085
H         -6.26686        3.05787       -0.83638
H         -0.22459       -3.60314       -1.67014
H         -0.68435       -1.94026       -2.12392
H         -1.91311       -3.26464       -2.16836
