62
COMP81_100022.log	Energy: -1701398.4495256
C          0.26404       -0.03608        0.06389
C          1.72885       -0.12219        0.05930
C          2.63330        0.83751       -0.26622
F          2.28884        2.07424       -0.64757
C          4.01484        0.45063       -0.18867
C          5.17884        1.17655       -0.46914
O          5.17025        2.47135       -0.89366
C          4.96519        3.42957        0.13996
C          6.39222        0.51373       -0.33245
S          7.95997        1.23141       -0.62496
C          8.74913       -0.26136       -0.19094
H          9.82604       -0.34791       -0.20852
C          7.87199       -1.22878        0.14288
F          8.23795       -2.46232        0.50347
C          6.48640       -0.83887        0.07232
C          5.32161       -1.56375        0.35182
O          5.32993       -2.85843        0.77638
C          5.54041       -3.81692       -0.25649
C          4.10925       -0.90187        0.21256
S          2.54516       -1.61741        0.50609
C         -0.51721       -1.19102       -0.07458
C         -1.90801       -1.14739       -0.06852
C         -2.56431        0.07489        0.07870
C         -3.97236        0.52818        0.04547
C         -3.89657        2.04927        0.10434
O         -4.75883        2.90057        0.04487
N         -2.56707        2.33480        0.32190
O         -2.06995        3.60105        0.19699
C         -2.19627        4.30497        1.43453
C         -1.75128        1.21764        0.20732
C         -0.37473        1.20519        0.20870
C         -5.14812       -0.15987        0.01115
C         -5.21717       -1.67136        0.19798
O         -4.35044       -2.48472        0.44599
N         -6.54283       -1.99311        0.04644
O         -7.04130       -3.22406        0.36120
C         -6.87706       -4.12298       -0.73821
C         -7.36079       -0.88227       -0.11379
C         -8.73471       -0.87567       -0.24131
C         -9.34693        0.36176       -0.44004
H        -10.42673        0.41247       -0.54273
C         -8.58645        1.52457       -0.51388
C         -7.19793        1.49247       -0.37686
C         -6.55475        0.27337       -0.15509
H          5.03455        4.40774       -0.33707
H          5.73893        3.33952        0.91155
H          3.97553        3.31412        0.59274
H          5.46876       -4.79492        0.22042
H          6.53210       -3.70080       -0.70421
H          4.76985       -3.72713       -1.03134
H         -0.03374       -2.15361       -0.20881
H         -2.47253       -2.06048       -0.17193
H         -1.72506        5.27242        1.25564
H         -1.67400        3.77321        2.23705
H         -3.25090        4.44163        1.68715
H          0.17834        2.12935        0.30565
H         -7.35177       -5.05025       -0.41466
H         -5.81524       -4.29315       -0.93419
H         -7.37608       -3.73447       -1.63235
H         -9.29821       -1.79965       -0.18094
H         -9.07559        2.47929       -0.67715
H         -6.62391        2.40416       -0.42831
