56
COMP82_210003.log	Energy: -2228958.6442260
C         -0.97452        0.54811        0.25759
C         -2.43687        0.64068        0.37996
C         -3.21689        1.63120        0.91397
Cl        -2.65664        3.08616        1.65363
C         -4.60231        1.32251        0.86164
F         -5.52694        2.15300        1.34205
C         -4.90292        0.11569        0.29753
S         -3.42842       -0.66534       -0.19599
C         -6.21169       -0.47462        0.10614
S         -7.68820        0.31620        0.58741
C         -8.65529       -0.99745        0.03663
H         -9.73115       -0.96852        0.13024
C         -7.89666       -1.99472       -0.49104
Cl        -8.50232       -3.47253       -1.14362
C         -6.50845       -1.68895       -0.44758
F         -5.58311       -2.52746       -0.91176
C         -0.32016       -0.65255        0.55496
C          1.05486       -0.77345        0.42056
C          1.80944        0.31709       -0.01765
C          3.25034        0.55473       -0.15460
C          3.38329        2.00257       -0.55731
O          4.38200        2.59880       -0.87291
N          2.07235        2.53076       -0.61781
C          1.71268        3.83723       -0.98064
O          0.57550        4.16651       -1.22348
O          2.75877        4.65061       -1.00114
C          2.46426        5.99537       -1.38482
C          1.13594        1.52522       -0.28324
C         -0.23681        1.65842       -0.17009
C          4.33160       -0.26845       -0.02089
C          4.20400       -1.77312       -0.07653
O          3.21901       -2.42555       -0.31607
N          5.50443       -2.29862        0.08644
C          5.86523       -3.65333        0.07407
O          7.01038       -4.03360        0.00212
O          4.80793       -4.44724        0.17194
C          5.10207       -5.84481        0.13103
C          6.43455       -1.23933        0.22443
C          7.79751       -1.33280        0.45930
C          8.50578       -0.14690        0.63958
H          9.57543       -0.19734        0.81900
C          7.86468        1.08745        0.59929
C          6.49894        1.16805        0.35627
C          5.76364       -0.00266        0.14687
H         -0.89139       -1.50347        0.91270
H          1.53169       -1.71407        0.64536
H          3.42517        6.50717       -1.38144
H          1.77831        6.45454       -0.66936
H          2.01688        6.02072       -2.38072
H         -0.72080        2.58963       -0.42226
H          4.13547       -6.33970        0.20946
H          5.74930       -6.12514        0.96509
H          5.59278       -6.10425       -0.80959
H          8.28781       -2.29410        0.49758
H          8.43101        2.00046        0.75145
H          6.01432        2.13034        0.31025
