36
COMP62_100002.log	Energy: -1268557.4189127
C         -1.57543       -0.73016        0.01938
C         -0.15361       -0.92910        0.13210
C          0.57950       -2.01842        0.54866
F          0.04553       -3.15305        0.98886
C          1.97646       -1.83634        0.54864
H          2.67610       -2.59077        0.88560
C          2.32061       -0.57692        0.12410
S          0.93268        0.37086       -0.27127
C          3.65137       -0.00588       -0.00364
S          5.01982       -1.01398       -0.36750
C          6.09665        0.33039       -0.33301
H          7.15571        0.21375       -0.50793
C          5.41409        1.47755       -0.07064
F          5.99304        2.67530        0.01463
C          4.01843        1.30776        0.12184
H          3.34109        2.11618        0.36932
C         -2.29178        0.44153        0.04189
C         -2.15106        1.85783        0.34677
O         -1.20874        2.59316        0.56746
N         -3.50824        2.29185        0.28421
O         -3.89748        3.56603        0.56958
C         -3.60081        4.44266       -0.52209
C         -4.39983        1.28557       -0.00061
H         -5.45918        1.49411       -0.04668
C         -3.68466        0.14193       -0.16205
C         -3.82711       -1.28622       -0.38716
O         -4.75171       -2.00350       -0.68973
N         -2.48963       -1.76412       -0.15349
O         -2.09590       -2.96036       -0.69537
C         -2.55717       -4.05542        0.10240
H         -3.97643        5.41679       -0.20651
H         -4.11858        4.11503       -1.43054
H         -2.52202        4.49001       -0.68930
H         -2.04464       -4.92786       -0.30475
H         -3.63859       -4.16461        0.00087
H         -2.27884       -3.91049        1.14877
