35
COMP47_010002.log	Energy: -1460450.7711711
C         -2.41878       -1.18743       -0.06041
C         -0.97344       -1.21488       -0.04817
C         -0.16135       -2.32554       -0.00653
F         -0.65498       -3.56702        0.03027
C          1.22253       -2.08067       -0.01484
H          1.96431       -2.86845       -0.00278
C          1.48703       -0.73233       -0.05904
S          0.02992        0.20738       -0.09478
C          2.76352       -0.03900       -0.07802
C          3.95602       -0.63553        0.09224
C          5.23843        0.04575        0.04292
C          5.53679        1.33525       -0.32021
H          4.81580        2.06826       -0.65914
C          6.92467        1.60043       -0.21826
F          7.43494        2.79423       -0.52594
C          7.68036        0.54981        0.20566
H          8.74937        0.51833        0.35330
S          6.67853       -0.81805        0.49806
C         -3.29415       -0.13168       -0.09627
C         -3.21768        1.34599       -0.12143
O         -2.27508        2.10110       -0.12563
N         -4.56708        1.74393       -0.11604
O         -4.92470        3.04474       -0.27938
C         -5.11109        3.67659        0.98955
C         -5.51481        0.70458       -0.12570
O         -6.71111        0.84161       -0.13318
C         -4.66475       -0.51236       -0.09849
C         -4.86522       -1.85043       -0.06510
H         -5.79674       -2.39936       -0.05838
S         -3.34919       -2.67997       -0.03278
H          2.72148        1.03649       -0.23694
H          3.99208       -1.70564        0.28722
H         -5.38319        4.70562        0.75229
H         -4.18082        3.65964        1.56553
H         -5.92177        3.19223        1.54225
