40
COMP72_420000.log	Energy: -2247564.5865153
C          0.87020        1.26583        0.25619
C         -0.43548        0.63344        0.34266
C         -0.87442       -0.38880        1.16326
O         -0.14173       -1.12112        1.99727
C         -2.29476       -0.56851        1.08797
Cl        -3.10011       -1.75142        2.04451
C         -2.92150        0.28564        0.22663
S         -1.77465        1.33930       -0.53299
C         -4.33841        0.35756       -0.11157
S         -5.27669        1.76620        0.27120
C         -6.70391        1.07524       -0.40885
H         -7.63559        1.62442       -0.40603
C         -6.47591       -0.17632       -0.90118
O         -7.35253       -1.01042       -1.50059
C         -5.11341       -0.58251       -0.73284
Cl        -4.53788       -2.09987       -1.31037
C          2.16778        0.77555        0.18503
C          2.58238       -0.63447        0.14259
O          1.80446       -1.57606        0.32728
C          4.00508       -0.88075       -0.13609
C          4.55229       -2.13385       -0.27560
C          3.89294       -3.47593       -0.21467
S          6.25341       -2.00250       -0.55194
C          6.25109       -0.27429       -0.47285
C          7.51324        0.51287       -0.63449
C          4.97730        0.17668       -0.24710
C          4.60046        1.59438       -0.12522
O          5.39946        2.51555       -0.19140
C          3.14616        1.82679        0.05570
C          2.59986        3.07182        0.04489
H          3.13146        4.00797       -0.05668
S          0.89594        3.01059        0.19389
H          0.68865       -1.35273        1.51568
H         -8.21862       -0.58795       -1.53934
H          3.08016       -3.53595       -0.94334
H          3.44582       -3.63593        0.77036
H          4.60848       -4.27811       -0.41354
H          8.36455       -0.13651       -0.85472
H          7.72555        1.07889        0.27714
H          7.40409        1.24437       -1.43962
