42
COMP77_200000.log	Energy: -2201748.0931899
C         -1.32200       -0.99689       -0.61731
C         -0.07736       -0.23842       -0.59909
C          0.16906        1.05225       -0.98145
H         -0.59651        1.73576       -1.31494
C          1.54000        1.38986       -0.87213
Cl         2.12115        2.96809       -1.29968
C          2.35611        0.38330       -0.41045
S          1.39553       -1.02794       -0.09160
C          3.78482        0.44604       -0.18432
C          4.53686       -0.58393        0.24597
C          5.96625       -0.59180        0.50376
C          6.96450        0.34741        0.37044
Cl         6.74320        1.96457       -0.21913
C          8.25761       -0.10502        0.75545
H          9.14255        0.51688        0.70754
C          8.24124       -1.39649        1.18386
H          9.07512       -1.98925        1.53266
S          6.66070       -2.06716        1.12108
C         -2.63583       -0.63542       -0.37346
C         -3.14243        0.70912        0.00519
O         -2.43886        1.70857        0.03401
C         -4.58215        0.76723        0.34047
C         -5.21702        1.90852        0.76254
C         -4.65795        3.27798        0.99088
S         -6.89506        1.58320        1.03249
C         -6.76468       -0.07867        0.57406
C         -7.95562       -0.98467        0.58166
C         -5.46791       -0.36347        0.23228
C         -4.99241       -1.68469       -0.20595
O         -5.71701       -2.66032       -0.33040
C         -3.53343       -1.75564       -0.47198
C         -2.90984       -2.92204       -0.79595
H         -3.37746       -3.88897       -0.92030
S         -1.22693       -2.69737       -0.99551
H          4.23254        1.41181       -0.38612
H          4.04648       -1.53824        0.43611
H         -4.24348        3.67973        0.06218
H         -3.83529        3.23899        1.70994
H         -5.42357        3.96385        1.36355
H         -8.84356       -0.47671        0.96677
H         -7.75464       -1.86826        1.19322
H         -8.16393       -1.34588       -0.42975
