54
COMP91_200013.log	Energy: -2197367.8734256
C          0.49006       -0.10517       -0.17194
C         -0.96935       -0.34945       -0.14364
C         -1.72161       -0.64799        0.93893
Cl        -1.09275       -0.69505        2.55269
C         -3.11167       -0.89780        0.64695
C         -4.14610       -1.21532        1.52362
H         -3.96121       -1.30351        2.58908
C         -5.40774       -1.41140        0.98171
S         -6.86735       -1.81526        1.86130
C         -7.79307       -1.83046        0.38806
H         -8.85163       -2.04901        0.41148
C         -7.04626       -1.54812       -0.70007
Cl        -7.67866       -1.48576       -2.31262
C         -5.65421       -1.29722       -0.40892
C         -4.61815       -0.98037       -1.28567
H         -4.80333       -0.88879       -2.35077
C         -3.35786       -0.78394       -0.74316
S         -1.89995       -0.38494       -1.62468
C          1.32365       -1.24886       -0.19268
C          2.68987       -1.13234       -0.22100
C          3.52513       -2.36180       -0.23748
O          3.07098       -3.48446       -0.21439
N          4.90553       -2.15084       -0.28432
C          5.73903       -3.34057       -0.34551
O          6.08609       -3.84176       -1.37324
O          6.02156       -3.73645        0.88164
C          6.83840       -4.91098        0.96128
C          5.57399       -0.92303       -0.27630
O          6.78482       -0.88037       -0.28113
C          4.70647        0.28349       -0.26079
C          5.28659        1.53077       -0.26733
H          6.36816        1.60909       -0.28952
C          4.47785        2.68089       -0.24483
C          3.10624        2.56783       -0.21543
C          2.28861        3.80512       -0.18492
O          2.75462        4.92398       -0.17643
N          0.90980        3.60530       -0.16132
C          0.08238        4.80162       -0.16695
O         -0.29242        5.33004       -1.17097
O         -0.15793        5.16943        1.07763
C         -0.97781        6.33668        1.21103
C          0.22066        2.38836       -0.12383
O         -0.98785        2.39151       -0.05242
C          1.06417        1.15819       -0.17764
C          2.47935        1.29579       -0.20915
C          3.29773        0.14391       -0.23231
H          0.87530       -2.23682       -0.18456
H          6.97834       -5.09307        2.02521
H          7.79663       -4.73437        0.46846
H          6.32999       -5.75266        0.48652
H          4.91904        3.67165       -0.24922
H         -1.08945        6.49025        2.28279
H         -1.94826        6.16708        0.74019
H         -0.48718        7.19352        0.74474
