41
COMP47_330003.log	Energy: -1638523.3762576
C          2.61522       -1.52694       -0.06001
C          1.16050       -1.59047       -0.02914
C          0.34455       -2.71059       -0.02273
C          0.79067       -4.06556       -0.02813
N          1.12302       -5.17639       -0.03262
C         -1.05115       -2.39708       -0.01040
C         -2.05837       -3.40563       -0.00863
N         -2.89062       -4.21322       -0.00466
C         -1.29490       -1.03687       -0.00702
S          0.18981       -0.15338       -0.01152
C         -2.52870       -0.26859       -0.00010
C         -3.76930       -0.78514        0.09076
C         -5.00753       -0.02375        0.08795
C         -5.26799        1.32703       -0.06118
C         -4.27318        2.32684       -0.26485
N         -3.45516        3.13228       -0.42917
C         -6.66965        1.63434        0.00467
C         -7.20658        2.95241       -0.12223
N         -7.64817        4.01845       -0.22470
C         -7.44072        0.52140        0.19930
H         -8.51756        0.48194        0.28429
S         -6.49173       -0.89559        0.30249
C          3.45452       -0.43694       -0.00656
C          3.33399        1.03600        0.12474
O          2.34580        1.71085        0.26351
N          4.66988        1.51614        0.10383
C          5.04666        2.87946        0.25874
O          6.00338        3.22870        0.89192
O          4.20597        3.66044       -0.40370
C          4.43464        5.06453       -0.24346
C          5.63972        0.47178       -0.00902
O          6.82809        0.61216       -0.07520
C          4.82650       -0.76321       -0.07378
C          5.07514       -2.09253       -0.18516
H          6.02518       -2.60475       -0.25281
S          3.59987       -2.97277       -0.20371
H         -2.39500        0.80623       -0.07550
H         -3.89931       -1.85904        0.17975
H          3.61887        5.54988       -0.77621
H          5.39941        5.34007       -0.67452
H          4.41847        5.33233        0.81512
