34
COMP29_000200.log	Energy: -1805917.9116896
C          1.70689       -0.01774       -0.00008
C          0.23919       -0.05308        0.03532
C         -0.56400       -0.90008        0.76111
C         -1.93726       -0.65459        0.54388
C         -2.15838        0.36889       -0.34918
S         -0.70529        1.06673       -0.92537
C         -3.58549        0.54446       -0.51160
C         -4.23674       -0.37017        0.28106
C         -3.24890       -1.23731        1.04601
C         -3.38636       -2.71951        0.66256
C         -3.39896       -1.05206        2.56494
C         -5.64954       -0.26945        0.18543
C         -6.02820        0.71987       -0.67865
H         -7.03230        1.02052       -0.94486
S         -4.67429        1.54378       -1.38910
C          2.39784        1.21960        0.24859
N          1.81662        2.38781        0.52072
S          3.01518        3.46495        0.72379
N          4.31085        2.51009        0.48617
C          3.83137        1.29183        0.23339
C          4.60469        0.12966       -0.02264
H          5.68620        0.18085       -0.02962
C          3.94266       -1.03717       -0.25389
Cl         4.88681       -2.46080       -0.57189
C          2.49837       -1.11808       -0.25328
Cl         1.77285       -2.65166       -0.62086
H         -0.16478       -1.65878        1.42406
H         -3.27523       -2.85397       -0.41718
H         -4.36778       -3.10401        0.96153
H         -2.61923       -3.31777        1.16635
H         -3.29879        0.00208        2.83912
H         -2.63090       -1.62342        3.09791
H         -4.37976       -1.40703        2.90017
H         -6.35670       -0.88984        0.72409
