31
COMP27_110200.log	Energy: -2030239.7090551
C          2.70712        0.01375        0.00479
C          1.27772       -0.23764        0.22071
C          0.71201       -1.13929        1.07299
F          1.39559       -1.95733        1.86457
C         -0.70436       -1.13523        1.05107
F         -1.41070       -1.95969        1.82738
C         -1.24516       -0.22498        0.18333
S          0.03509        0.64156       -0.61169
C         -2.62862        0.08162       -0.12869
C         -3.69238       -0.52819        0.42815
C         -5.07676       -0.22608        0.11679
C         -5.62143        0.67839       -0.75409
F         -4.91644        1.50511       -1.52919
C         -7.04251        0.67613       -0.77626
F         -7.72759        1.49591       -1.56848
C         -7.59072       -0.22784        0.07556
H         -8.63894       -0.42290        0.24453
S         -6.35946       -1.09007        0.91792
C          3.25333        1.31019        0.28636
N          2.56659        2.36024        0.73582
S          3.63708        3.57273        0.89372
N          4.99946        2.82905        0.41008
C          4.65051        1.57936        0.10164
C          5.52264        0.55911       -0.36146
H          6.57828        0.75926       -0.49625
C          4.99067       -0.66589       -0.62801
Cl         6.05017       -1.91615       -1.20005
C          3.58188       -0.94337       -0.45652
Cl         2.99591       -2.51793       -0.87263
H         -2.78536        0.86086       -0.86785
H         -3.53449       -1.30682        1.16776
