43
COMP56_000020.log	Energy: -1170803.3491600
C          1.51415       -0.07406       -0.29952
C          0.09111       -0.43251       -0.31728
C         -0.87596        0.55838       -0.07179
C         -2.21523        0.22697       -0.12387
C         -3.44276        1.12475        0.09531
O         -3.38056        1.87808        1.28193
C         -3.20410        1.13942        2.47202
O         -3.68171        2.02454       -0.94112
C         -2.68345        2.99823       -1.17565
C         -4.57713        0.10696        0.05126
C         -5.92687        0.33793        0.23694
C         -6.80399       -0.74395        0.13557
H         -7.86902       -0.59101        0.28113
C         -6.32297       -2.02126       -0.15214
C         -4.95951       -2.24716       -0.34142
C         -4.08894       -1.16995       -0.23484
C         -2.62068       -1.09507       -0.34956
C         -1.67622       -2.08481       -0.58129
C         -0.32615       -1.74358       -0.57793
C          2.08763        1.12358       -0.63863
H          1.53844        1.98392       -1.00279
N          3.44612        1.20183       -0.53154
C          3.93628        0.06863       -0.11422
S          2.76345       -1.17674        0.18842
C          5.35512       -0.17196        0.09658
S          6.53200        1.07624       -0.18818
C          7.75948       -0.03641        0.28181
H          8.80342        0.24279        0.29137
C          7.20466       -1.23685        0.61020
H          7.75591       -2.10905        0.93902
N          5.84171       -1.31016        0.50484
H         -0.56562        1.56474        0.19301
H         -3.22137        1.86651        3.28557
H         -2.24431        0.60703        2.48488
H         -4.01401        0.41310        2.61907
H         -3.12816        3.72594       -1.85677
H         -1.80060        2.55751       -1.65689
H         -2.38744        3.50168       -0.24972
H         -6.28745        1.33825        0.45551
H         -7.01960       -2.85093       -0.22798
H         -4.59258       -3.24545       -0.56269
H         -1.97454       -3.11341       -0.76133
H          0.41611       -2.50974       -0.78406
