34
COMP47_200000.log	Energy: -1865589.2840709
C         -2.57796       -0.79050       -0.07422
C         -1.29818       -0.11069       -0.05559
C         -1.07720        1.24249       -0.03469
H         -1.87307        1.97822       -0.02463
C          0.30401        1.55182       -0.02100
Cl         0.86711        3.19160        0.00539
C          1.14722        0.46374       -0.02751
S          0.20269       -0.99493       -0.05633
C          2.59426        0.47620       -0.00976
C          3.36886       -0.62374        0.03738
C          4.81953       -0.68558        0.05734
C          5.81439        0.26302       -0.02864
Cl         5.55611        1.96923       -0.21048
C          7.13616       -0.25948        0.03473
H          8.02248        0.35986       -0.01951
C          7.14509       -1.61368        0.16926
H          8.00347       -2.26668        0.24139
S          5.55368       -2.25846        0.21986
C         -3.85155       -0.28244       -0.01886
C         -4.51228        1.04181        0.08024
O         -4.04036        2.15753        0.13083
N         -5.88577        0.76367        0.10293
C         -6.90573        1.78477        0.20664
C         -6.18871       -0.60183        0.02858
O         -7.30414       -1.06480        0.03475
C         -4.86716       -1.27325       -0.05333
C         -4.40648       -2.54390       -0.13734
H         -4.95819       -3.47267       -0.17687
S         -2.67804       -2.53724       -0.17807
H          3.03715        1.46480       -0.03240
H          2.88253       -1.59825        0.07219
H         -6.41612        2.75416        0.10929
H         -7.41243        1.72240        1.17346
H         -7.64327        1.65403       -0.58833
