30
COMP52_110300.log	Energy: -1770486.7894273
C         -0.85239        0.27368       -0.00068
C          0.50901       -0.21166       -0.00103
C          0.90576       -1.52362       -0.00261
F          0.06952       -2.55733       -0.00440
C          2.30477       -1.70304       -0.00236
F          2.86027       -2.91296       -0.00386
C          3.00814       -0.53013       -0.00038
S          1.91484        0.82481        0.00102
C          4.44459       -0.36185        0.00040
S          5.55559       -1.70672       -0.00083
C          6.92852       -0.66418        0.00085
H          7.93194       -1.06333        0.00072
C          6.55667        0.64061        0.00239
F          7.38443        1.67867        0.00392
C          5.14630        0.81196        0.00213
F          4.57956        2.01576        0.00349
C         -1.33398        1.57309       -0.00123
C         -0.51981        2.74862       -0.00231
N          0.15013        3.69477       -0.00325
N         -2.69369        1.71919       -0.00083
C         -3.27091        0.55631        0.00013
S         -2.20648       -0.81534        0.00069
C         -4.71502        0.38231        0.00047
S         -5.78775        1.75366       -0.00292
C         -7.11017        0.66491       -0.00111
H         -8.13625        1.00436       -0.00237
C         -6.65594       -0.62701        0.00218
C         -7.51283       -1.77598        0.00433
N         -8.22820       -2.68669        0.00609
N         -5.29324       -0.78227        0.00298
