29
COMP22_410000.log	Energy: -1374783.7922051
C          2.14681        0.74886       -0.21606
C          0.85204        0.06822       -0.15930
C          0.50554       -1.26234       -0.29769
O          1.26396       -2.34672       -0.48622
C         -0.90954       -1.43999       -0.26040
F         -1.44571       -2.65566       -0.38674
C         -1.64940       -0.30932       -0.08859
S         -0.58381        1.05692        0.05002
C         -3.08904       -0.19481        0.00516
S         -4.15261       -1.57130       -0.09997
C         -5.55690       -0.57868        0.09119
H         -6.54048       -1.02780        0.09084
C         -5.23941        0.73913        0.22916
O         -6.05776        1.80367        0.39680
C         -3.82924        0.94042        0.17752
F         -3.29717        2.15972        0.29189
C          3.40067        0.09255        0.05629
N          3.57272       -1.19799        0.34424
S          5.16919       -1.44369        0.57314
N          5.70800        0.06405        0.32370
C          4.64634        0.82281        0.04480
C          4.67384        2.21492       -0.24219
H          5.61617        2.74928       -0.24212
C          3.47905        2.81220       -0.51129
H          3.44504        3.87206       -0.74317
C          2.24743        2.09324       -0.50384
H          1.34711        2.64929       -0.74622
H          2.18224       -2.14952       -0.20184
H         -6.97216        1.49804        0.41631
