37
COMP47_040002.log	Energy: -1430321.4787279
C          2.15574        0.88165       -0.16090
C          0.83062        0.31964       -0.21024
C          0.38888       -0.88568       -0.75117
O          1.11655       -1.85743       -1.29969
C         -1.02975       -0.99851       -0.76163
H         -1.52468       -1.86619       -1.17989
C         -1.67305        0.08185       -0.22239
S         -0.53691        1.27660        0.31680
C         -3.09375        0.31389       -0.02231
C         -4.03444       -0.64210       -0.11790
C         -5.46202       -0.41989        0.03034
C         -6.16756        0.75799        0.06726
H         -5.70884        1.73498       -0.04673
C         -7.56680        0.55840        0.24098
O         -8.49474        1.54742        0.30789
C         -7.91252       -0.76211        0.32704
H         -8.90367       -1.17098        0.45558
S         -6.52958       -1.77688        0.19864
C          3.41070        0.31714       -0.13322
C          3.99092       -1.02804       -0.04779
O          3.47208       -2.13178       -0.07621
N          5.35954       -0.81105        0.10612
O          6.25454       -1.83046        0.03004
C          6.59474       -2.30023        1.33762
C          5.76603        0.54245        0.05683
O          6.90130        0.93181        0.13249
C          4.47692        1.26323       -0.06792
C          4.07651        2.55412       -0.05017
H          4.67250        3.45354        0.01748
S          2.34985        2.63283       -0.14469
H          1.99365       -1.96418       -0.86084
H         -3.38677        1.33136        0.22794
H         -3.72639       -1.66815       -0.30948
H         -8.05223        2.40106        0.24451
H          7.32231       -3.09411        1.16649
H          5.71079       -2.70293        1.84103
H          7.04795       -1.49719        1.92627
