32
COMP57_210100.log	Energy: -2280113.2634155
C         -2.12338       -0.15927        0.00192
C         -0.76972        0.34274       -0.00400
C         -0.36297        1.64779       -0.01749
F         -1.21123        2.67368       -0.02780
C          1.04215        1.82991       -0.01982
Cl         1.75535        3.39901       -0.03708
C          1.73454        0.64390       -0.00840
S          0.62646       -0.69928        0.00671
C          3.17308        0.48190       -0.00838
C          3.80834       -0.70449       -0.01274
C          5.24099       -0.93679       -0.01203
C          6.33224       -0.10000        0.02161
Cl         6.30807        1.62417        0.08071
C          7.57099       -0.80375        0.00671
F          8.73430       -0.16458        0.03479
C          7.44115       -2.15395       -0.03724
H          8.22906       -2.89165       -0.05587
S          5.77976       -2.59404       -0.06112
C         -2.54998       -1.46423        0.01608
F         -1.71385       -2.49571        0.02694
N         -3.87051       -1.70817        0.01911
C         -4.51890       -0.57241        0.00704
S         -3.53721        0.85475       -0.00851
C         -5.96717       -0.48189        0.00655
S         -6.96207       -1.90207        0.02242
C         -8.34964       -0.88396        0.01192
H         -9.35801       -1.26853        0.01663
C         -7.94153        0.41583       -0.00253
F         -8.76411        1.45193       -0.01364
N         -6.61130        0.65492       -0.00574
H          3.73292        1.40993       -0.00602
H          3.21224       -1.61675       -0.01969
