33
COMP27_410200.log	Energy: -2000108.8316045
C          2.62171       -0.00193        0.04348
C          1.24462       -0.35703        0.40133
C          0.82988       -1.28745        1.30279
F          1.64002       -2.05383        2.04428
C         -0.57808       -1.41719        1.43362
O         -1.18167       -2.28520        2.27641
C         -1.25715       -0.55217        0.61389
S         -0.14102        0.41080       -0.31589
C         -2.69735       -0.43564        0.52175
C         -3.37060        0.48712       -0.19391
C         -4.81696        0.52273       -0.32576
C         -5.68792       -0.53915       -0.36607
O         -5.39062       -1.85572       -0.30692
C         -7.04234       -0.11848       -0.53247
F         -8.03645       -1.00259       -0.59288
C         -7.19950        1.22492       -0.62643
H         -8.12412        1.76879       -0.74911
S         -5.67804        2.03001       -0.51747
C          3.07920        1.34716        0.21939
N          2.34931        2.35851        0.68861
S          3.32039        3.66085        0.69406
N          4.69268        3.00772        0.11617
C          4.42555        1.72001       -0.10672
C          5.33708        0.75277       -0.60608
H          6.35656        1.03060       -0.84269
C          4.88964       -0.52272       -0.77214
Cl         5.99858       -1.70910       -1.38580
C          3.52998       -0.90491       -0.46113
Cl         3.04538       -2.53888       -0.76775
H         -0.50076       -2.79787        2.73163
H         -3.24253       -1.15150        1.13449
H         -2.81616        1.26069       -0.72571
H         -4.43615       -1.95829       -0.43461
