38
COMP55_000220.log	Energy: -1685774.4795849
C         -0.58271        0.18784       -0.28786
C          0.81809       -0.26033       -0.31306
C          1.79416        0.47665        0.35646
C          3.10020        0.00892        0.29584
N          4.23971        0.53420        0.86572
O          4.29864        1.76286        1.46067
C          4.47457        2.78716        0.47534
C          5.34546       -0.21768        0.52017
C          6.68644       -0.01999        0.83830
C          7.59114       -0.95836        0.36229
H          8.64644       -0.83715        0.58738
C          7.17317       -2.06128       -0.39927
C          5.83285       -2.24608       -0.70678
C          4.89982       -1.31247       -0.25149
C          3.46407       -1.16760       -0.39528
C          2.46754       -1.90107       -1.03877
C          1.15943       -1.44509       -0.99884
C         -1.13138        1.42908       -0.49612
Cl        -0.22699        2.85034       -0.90083
N         -2.48216        1.53887       -0.41636
C         -3.00718        0.37740       -0.14232
S         -1.87696       -0.92059        0.04254
C         -4.43743        0.16332        0.00457
S         -5.57195        1.46562       -0.17321
C         -6.84141        0.34800        0.14325
H         -7.88055        0.64092        0.16102
C         -6.31196       -0.89017        0.35289
Cl        -7.25221       -2.29694        0.70718
N         -4.95938       -1.00091        0.27572
H          1.54746        1.37032        0.91777
H          4.49890        3.72206        1.03665
H          3.63661        2.79291       -0.22963
H          5.41745        2.64478       -0.06290
H          6.99864        0.82705        1.43950
H          7.90948       -2.77754       -0.74940
H          5.51358       -3.10057       -1.29646
H          2.71144       -2.81253       -1.57603
H          0.38402       -1.99625       -1.52212
