58
COMP82_300003.log	Energy: -1643402.0958255
C          1.42153        0.44495       -0.28161
C          2.88330        0.51356       -0.41563
C          3.66515        1.53454       -0.91749
C          3.14241        2.75001       -1.45822
N          2.73969        3.74058       -1.90631
C          5.06331        1.24918       -0.88733
H          5.81751        1.94939       -1.22658
C          5.34013        0.01534       -0.37083
S          3.87889       -0.80856        0.08166
C          6.63788       -0.61780       -0.18037
S          7.96489       -0.26231       -1.24866
C          9.01408       -1.31397       -0.39752
H         10.04448       -1.43951       -0.69912
C          8.37259       -1.92654        0.64757
C          9.01171       -2.85994        1.52234
N          9.52367       -3.61808        2.23395
C          7.00716       -1.52441        0.77404
H          6.34865       -1.88300        1.55612
C          0.73911       -0.74477       -0.56087
C         -0.63906       -0.82825       -0.43088
C         -1.36699        0.28812       -0.01228
C         -2.80210        0.56865        0.11519
C         -2.89559        2.02934        0.48544
O         -3.87610        2.66233        0.78669
N         -1.57152        2.51780        0.54363
C         -1.17298        3.81567        0.90614
O         -0.04673        4.08636        1.24783
O         -2.16883        4.68148        0.80052
C         -1.83882        6.02324        1.16922
C         -0.66382        1.48228        0.23698
C          0.71181        1.58040        0.12524
C         -3.90432       -0.22879        0.00294
C         -3.81681       -1.73530        0.09601
O         -2.84534       -2.40782        0.33520
N         -5.13315       -2.22789       -0.03264
C         -5.53294       -3.57062        0.02907
O         -6.68725       -3.91344        0.13213
O         -4.50115       -4.39813       -0.06023
C         -4.83463       -5.78457        0.03339
C         -6.03530       -1.14721       -0.19265
C         -7.40284       -1.20887       -0.40965
C         -8.07858       -0.00911       -0.62094
H         -9.15120       -0.03401       -0.78754
C         -7.40204        1.20697       -0.62887
C         -6.03198        1.25590       -0.40262
C         -5.32901        0.07149       -0.16168
H          1.28837       -1.61565       -0.90529
H         -1.13928       -1.75923       -0.64474
H         -2.76517        6.58313        1.05247
H         -1.06105        6.41671        0.51123
H         -1.49234        6.06155        2.20417
H          1.21498        2.50611        0.36352
H         -3.88389       -6.30928       -0.04510
H         -5.50508       -6.07348       -0.77897
H         -5.31477       -5.99733        0.99097
H         -7.92066       -2.15645       -0.41080
H         -7.94374        2.13034       -0.80564
H         -5.51907        2.20459       -0.39495
