36
COMP57_230400.log	Energy: -2241194.7571286
C          2.27154       -0.09001       -0.37508
C          0.92013        0.42560       -0.34435
C          0.47335        1.72584       -0.46432
C          1.33085        2.84020       -0.70159
N          2.02816        3.74546       -0.89650
C         -0.95089        1.83265       -0.36802
Cl        -1.75966        3.34936       -0.50274
C         -1.59668        0.63754       -0.18893
S         -0.42442       -0.64706       -0.08019
C         -3.02494        0.42161       -0.08836
C         -3.61038       -0.78359        0.02922
C         -5.03236       -1.06407        0.13958
C         -6.13991       -0.26949        0.31769
Cl        -6.12656        1.44764        0.48436
C         -7.36962       -1.00348        0.37817
C         -8.65536       -0.40844        0.55845
N         -9.70458        0.06100        0.70396
C         -7.17719       -2.35213        0.24636
H         -7.93584       -3.12160        0.25640
S         -5.52540       -2.73461        0.05032
C          2.71341       -1.27351       -0.94278
O          1.98961       -2.17185       -1.62846
N          4.02893       -1.55563       -0.79280
C          4.62029       -0.60577       -0.11894
S          3.62295        0.71438        0.37664
C          6.03716       -0.62479        0.20444
S          7.06251       -1.92294       -0.30540
C          8.37671       -1.12623        0.47272
H          9.37298       -1.54498        0.46976
C          7.94057        0.04054        1.04605
O          8.66077        0.93991        1.74242
N          6.61854        0.31853        0.89215
H         -3.61992        1.32678       -0.11934
H         -2.97984       -1.67230        0.03787
H          1.11842       -1.80711       -1.83764
H          9.57936        0.64911        1.78238
