37
COMP21_300000.log	Energy: -1368790.2699684
C          2.69510       -0.85676       -0.48828
C          1.25301       -0.59742       -0.35927
C          0.59850        0.59361       -0.51326
C          1.32164        1.76088       -0.90480
N          1.93351        2.68416       -1.24927
C         -0.84268        0.49767       -0.32556
C         -1.83351        1.48849       -0.39615
C         -1.59026        2.94689       -0.68197
C         -3.13718        1.05018       -0.17026
S         -4.52790        2.11836       -0.20978
C         -5.58662        0.81147        0.15057
H         -6.65151        0.97915        0.24125
C         -4.95070       -0.38212        0.29929
C         -5.70705       -1.55555        0.60144
N         -6.35555       -2.48581        0.84586
C         -3.50717       -0.28770        0.11940
C         -2.51630       -1.27714        0.19518
C         -2.76147       -2.73128        0.49955
C         -1.21399       -0.83957       -0.03422
S          0.17464       -1.90329        0.01744
C          3.64685       -0.10589        0.27789
N          3.36741        0.83308        1.18132
S          4.79487        1.36300        1.74462
N          5.81606        0.42925        0.89304
C          5.05583       -0.34753        0.11747
C          5.52001       -1.34539       -0.78584
H          6.58473       -1.51386       -0.89920
C          4.58877       -2.06138       -1.47872
H          4.90569       -2.83045       -2.17547
C          3.18828       -1.82018       -1.32945
H          2.49591       -2.40625       -1.92680
H         -0.53854        3.19000       -0.81507
H         -1.97137        3.56391        0.14047
H         -2.11809        3.25076       -1.59397
H         -3.81105       -2.96496        0.66601
H         -2.20911       -3.03004        1.39866
H         -2.40900       -3.35984       -0.32708
