50
COMP61_300030.log	Energy: -1499207.5889505
C         -2.85538        0.45799        0.40271
C         -1.40530        0.31756        0.34350
C         -0.47285        1.28303        0.06020
C         -0.85743        2.57744       -0.40134
N         -1.20670        3.59456       -0.83473
C          0.87990        0.76456        0.05246
C          2.08948        1.44568       -0.14199
C          2.13786        2.94033       -0.09293
O          1.51382        3.59770        0.70252
O          2.98405        3.44442       -0.99470
C          3.11535        4.87161       -0.97899
C          3.25599        0.68831       -0.22677
S          4.86280        1.30922       -0.54767
C          5.52843       -0.27394       -0.42496
H          6.58359       -0.43216       -0.60524
C          4.61638       -1.24581       -0.15448
C          5.00078       -2.62218       -0.18779
N          5.36398       -3.71787       -0.29159
C          3.27140       -0.71340       -0.00400
C          2.07657       -1.37286        0.31115
C          2.08427       -2.78352        0.80881
O          2.91312       -3.21983        1.56748
O          1.03585       -3.47296        0.35137
C          0.92901       -4.82085        0.82566
C          0.89237       -0.63423        0.27536
S         -0.71455       -1.25806        0.55217
C         -3.79776       -0.35377       -0.16492
C         -3.97020       -1.50336       -1.05211
O         -3.19332       -2.29225       -1.55012
N         -5.38372       -1.55353       -1.23751
C         -6.02592       -2.56588       -2.04630
C         -6.01337       -0.54246       -0.54787
H         -7.08868       -0.43017       -0.60332
C         -5.08815        0.19597        0.11881
C         -4.91350        1.38373        0.94548
O         -5.69266        2.14907        1.47090
N         -3.49465        1.48884        1.07513
C         -2.91195        2.47666        1.96473
H          3.81659        5.10626       -1.77792
H          3.50147        5.20617       -0.01368
H          2.14455        5.33596       -1.16271
H          0.03879       -5.22477        0.34696
H          0.82521       -4.83195        1.91286
H          1.81820       -5.38635        0.54009
H         -5.23690       -3.21095       -2.43646
H         -6.56563       -2.11326       -2.88351
H         -6.71666       -3.16649       -1.44682
H         -3.64461        2.68476        2.74636
H         -2.68633        3.40432        1.43405
H         -1.99697        2.08341        2.41226
