46
COMP51_300330.log	Energy: -1970924.4438798
C         -1.86940       -0.61134        0.36241
C         -0.43040       -0.38473        0.27690
C          0.24379        0.80830        0.36168
C         -0.44115        2.05648        0.46019
N         -1.03721        3.05119        0.46636
C          1.67790        0.65572        0.21099
C          2.68409        1.63187        0.23295
C          2.40805        3.02024        0.72230
O          1.76970        3.25446        1.71725
O          2.99585        3.94409       -0.04103
C          2.81317        5.29912        0.39271
C          3.98651        1.23269       -0.05575
S          5.38659        2.28465       -0.09915
C          6.42131        0.93546       -0.36622
H          7.49121        1.08054       -0.43836
C          5.77642       -0.25861       -0.45977
C          6.53106       -1.46965       -0.54607
N          7.21175       -2.40758       -0.55118
C          4.33613       -0.11969       -0.30801
C          3.33127       -1.09552       -0.32223
C          3.61772       -2.49281       -0.77409
O          4.35481       -2.76086       -1.68886
O          2.91552       -3.38848       -0.07507
C          3.08451       -4.75538       -0.47416
C          2.02433       -0.69297       -0.04080
S          0.62758       -1.73812        0.00378
C         -2.53400       -1.67694        0.94366
C         -1.90826       -2.75992        1.64381
N         -1.40809       -3.64058        2.20607
N         -3.89578       -1.66477        0.84832
C         -4.28869       -0.60925        0.19584
S         -3.03559        0.45662       -0.34243
C         -5.68947       -0.31190       -0.06570
S         -6.95725       -1.35471        0.51113
C         -8.09497       -0.29486       -0.20525
H         -9.15982       -0.47175       -0.15122
C         -7.44944        0.74757       -0.81655
C         -8.12039        1.80709       -1.51033
N         -8.68972        2.64856       -2.06595
N         -6.08124        0.73212       -0.73398
H          3.33357        5.91025       -0.34255
H          3.24204        5.43832        1.38732
H          1.74856        5.53947        0.41856
H          2.43575       -5.33035        0.18403
H          4.12836       -5.04960       -0.34907
H          2.79360       -4.88403       -1.51871
