48
COMP46_000023.log	Energy: -1123565.0238457
C          1.24446        1.93639        0.11182
C         -0.19343        1.68257       -0.02531
C         -0.72841        0.46915        0.43969
C         -2.07593        0.22545        0.27816
C         -2.88650       -1.01293        0.69045
O         -2.32288       -2.22900        0.27510
C         -1.95433       -2.30978       -1.08792
O         -3.10088       -1.11540        2.06380
C         -1.94714       -1.27425        2.86743
C         -4.24498       -0.70404        0.07029
C         -5.37233       -1.50327        0.06716
C         -6.53203       -1.00885       -0.53272
H         -7.43199       -1.61629       -0.55069
C         -6.54717        0.26169       -1.10893
C         -5.40583        1.06351       -1.10286
C         -4.25254        0.56704       -0.50845
C         -2.90431        1.14875       -0.37417
C         -2.38982        2.35876       -0.81936
C         -1.03506        2.62147       -0.63449
C          2.30667        1.07445        0.03440
C          2.51744       -0.35786       -0.27332
O          1.72248       -1.21891       -0.55038
N          3.93597       -0.52803       -0.22682
C          4.61624       -1.73946       -0.51005
O          5.65045       -1.79434       -1.11703
O          3.95323       -2.76824        0.00517
C          4.50454       -4.05088       -0.30006
C          4.64006        0.68430        0.05645
O          5.82884        0.80022        0.17158
C          3.56911        1.69309        0.21090
C          3.50747        3.02932        0.43621
H          4.31231        3.73404        0.59228
S          1.85737        3.53966        0.44061
H         -0.07971       -0.27587        0.88531
H         -1.71065       -3.35727       -1.27276
H         -1.07514       -1.69350       -1.30854
H         -2.78241       -2.01391       -1.74612
H         -2.30703       -1.58032        3.85135
H         -1.39929       -0.32826        2.96820
H         -1.28213       -2.04602        2.46711
H         -5.34703       -2.48773        0.52343
H         -7.45835        0.63114       -1.56985
H         -5.42439        2.04982       -1.55780
H         -3.01946        3.08335       -1.32687
H         -0.61788        3.55176       -1.01033
H          3.80221       -4.77168        0.11566
H          5.48910       -4.15960        0.16043
H          4.59514       -4.18046       -1.38078
