56
COMP87_000002.log	Energy: -1433946.6366669
C          0.85186        0.33355        0.26190
C          2.30940        0.38536        0.41182
C          3.04984        1.23690        1.19374
H          2.60025        1.98472        1.83734
C          4.44496        1.00257        1.12360
H          5.17430        1.55455        1.70529
C          4.78209       -0.02599        0.27667
S          3.35389       -0.71241       -0.43543
C          6.08883       -0.56307       -0.06658
C          7.25691        0.05328        0.18465
C          8.56446       -0.52123       -0.09381
C          8.91256       -1.82532       -0.34831
H          8.19684       -2.63936       -0.33913
C         10.30261       -1.99921       -0.59003
H         10.76396       -2.95620       -0.80323
C         11.00206       -0.83025       -0.50901
H         12.06391       -0.67709       -0.64247
S          9.97264        0.49898       -0.14071
C          0.19221       -0.85662       -0.06761
C         -1.19262       -0.92307       -0.19591
C         -1.96494        0.21871        0.01922
C         -3.40150        0.55098       -0.06853
C         -3.47186        2.06277        0.11010
O         -4.39892        2.83959        0.01086
N         -2.19083        2.44159        0.43949
O         -1.81884        3.74093        0.61499
C         -1.68968        4.40599       -0.64712
C         -1.27167        1.40734        0.32344
C          0.09526        1.50119        0.45308
C         -4.51150       -0.23159       -0.17924
C         -4.46090       -1.74969       -0.06725
O         -3.52748       -2.52384       -0.05913
N         -5.77368       -2.14112        0.09606
O         -6.14532       -3.44950       -0.05953
C         -6.06797       -4.13344        1.19152
C         -6.66836       -1.10789       -0.16441
C         -8.04002       -1.20704       -0.28006
C         -8.73862       -0.03336       -0.56128
H         -9.81902       -0.06873       -0.66447
C         -8.06426        1.17380       -0.72179
C         -6.67640        1.24883       -0.60206
C         -5.94821        0.09414       -0.30869
H          6.09891       -1.53043       -0.56485
H          7.24686        1.04951        0.62277
H          0.76753       -1.76645       -0.20897
H         -1.66752       -1.85816       -0.44791
H         -1.31780        5.40184       -0.40331
H         -2.66253        4.47809       -1.14009
H         -0.96974        3.88230       -1.28554
H          0.56163        2.45513        0.67072
H         -6.41306       -5.14643        0.97926
H         -6.72087       -3.66024        1.93275
H         -5.03569       -4.15711        1.55074
H         -8.53531       -2.16502       -0.17289
H         -8.62143        2.07682       -0.94914
H         -6.16678        2.19041       -0.73321
