37
COMP65_000001.log	Energy: -656528.7469101
C         -2.16696       -0.73961        0.00903
C         -0.71533       -0.86405        0.00316
C          0.03687        0.31407        0.01840
C          1.42059        0.20533        0.00973
N          2.36968        1.21026        0.01719
C          2.12427        2.63348        0.03925
C          3.62181        0.62845        0.00880
C          4.87375        1.24642        0.01639
C          5.99284        0.42670        0.00278
H          6.97981        0.87948        0.00874
C          5.87826       -0.97269       -0.01754
C          4.63209       -1.58022       -0.02382
C          3.48896       -0.77806       -0.00995
C          2.07128       -1.05030       -0.00971
C          1.30513       -2.21794       -0.02525
C         -0.07455       -2.12291       -0.01959
C         -2.96158        0.38534        0.00361
C         -2.92436        1.84130       -0.02216
O         -2.02101        2.66626       -0.02942
N         -4.29520        2.18655       -0.03498
H         -4.59736        3.14785       -0.04806
C         -5.12158        1.07939       -0.01836
H         -6.19734        1.18662       -0.02658
C         -4.33949       -0.02687        0.00640
C         -4.38836       -1.48895        0.02012
O         -5.29582       -2.29113        0.03284
N         -3.01381       -1.83617        0.01725
H         -2.72535       -2.80071        0.04627
H         -0.46389        1.27784        0.03457
H          1.05195        2.82308       -0.02200
H          2.60963        3.11648       -0.81560
H          2.50665        3.07950        0.96401
H          4.97164        2.32735        0.03427
H          6.77668       -1.58168       -0.02766
H          4.54421       -2.66288       -0.03909
H          1.78561       -3.19141       -0.04318
H         -0.65421       -3.04023       -0.03713
