36
COMP62_010002.log	Energy: -1268561.1186771
C          1.39770        0.61996        0.03583
C          0.06584        0.08677       -0.03266
C         -0.22085       -1.23044       -0.31544
H          0.53704       -1.98385       -0.50965
C         -1.60905       -1.46260       -0.33189
F         -2.12304       -2.65564       -0.61738
C         -2.38567       -0.36320       -0.06004
S         -1.38065        1.01630        0.24523
C         -3.83259       -0.29555        0.00042
S         -4.74418        1.04899       -0.62613
C         -6.23899        0.33777       -0.14942
H         -7.16852        0.85469       -0.34251
C         -6.06913       -0.87341        0.44881
H         -6.86620       -1.50076        0.82598
C         -4.69451       -1.21798        0.53043
F         -4.28599       -2.34490        1.10776
C          2.60381       -0.03448       -0.07209
C          3.16935       -1.34767       -0.29482
O          2.70174       -2.45445       -0.50144
N          4.56608       -1.07538       -0.19303
O          5.52439       -1.99462       -0.50490
C          5.69951       -2.92141        0.57123
C          4.85272        0.25385        0.00333
H          5.87937        0.58593        0.06154
C          3.66896        0.91805        0.09105
C          3.09739        2.23698        0.32301
O          3.55363        3.33950        0.51986
N          1.69666        1.95661        0.23373
O          0.74846        2.89106        0.52753
C          0.56764        3.79273       -0.57347
H          6.48020       -3.60168        0.22893
H          4.77281       -3.47129        0.75188
H          6.02294       -2.40090        1.47945
H         -0.22007        4.47249       -0.24766
H          0.25035        3.24641       -1.46781
H          1.49288        4.34248       -0.75833
