37
COMP21_100120.log	Energy: -1596420.4631240
C          2.56898        0.28250        0.16049
C          1.11632        0.11854        0.11526
C          0.21920        1.03888       -0.31859
F          0.57852        2.21693       -0.83012
C         -1.16019        0.65797       -0.20167
C         -2.32536        1.35203       -0.55085
O         -2.31640        2.59753       -1.10126
C         -2.08817        3.65253       -0.17058
C         -3.53687        0.70548       -0.34400
S         -5.10738        1.38770       -0.70119
C         -5.89119       -0.05529       -0.11595
H         -6.96796       -0.14539       -0.12105
C         -5.01137       -0.98289        0.31093
F         -5.37343       -2.17413        0.79550
C         -3.62670       -0.59959        0.19659
C         -2.46133       -1.29154        0.54558
O         -2.46890       -2.53700        1.09851
C         -2.67091       -3.59328        0.16344
C         -1.24887       -0.64506        0.34056
S          0.31436       -1.33711        0.69030
C          3.48163       -0.74463       -0.26552
N          3.13531       -1.93880       -0.73655
S          4.52021       -2.72405       -1.07477
N          5.60747       -1.59055       -0.64464
C          4.90887       -0.54317       -0.21256
C          5.45611        0.68367        0.26280
H          6.52480        0.85099        0.30372
C          4.57122        1.62811        0.66260
F          4.98137        2.80476        1.13038
C          3.15024        1.42945        0.62498
F          2.41803        2.43594        1.09109
H         -2.14543        4.57878       -0.74320
H         -1.09769        3.56755        0.28658
H         -2.85864        3.65272        0.60926
H         -2.60627       -4.52007        0.73453
H         -1.89280       -3.58117       -0.60871
H         -3.65822       -3.52061       -0.30283
