64
COMP91_300023.log	Energy: -1879989.8773138
C          0.79736       -0.06538       -0.27456
C         -0.66563       -0.29814       -0.22970
C         -1.39646       -0.50741        0.90275
C         -0.79736       -0.44086        2.19618
N         -0.26300       -0.40044        3.22462
C         -2.79552       -0.76007        0.63051
C         -3.84244       -1.00790        1.52210
O         -3.65562       -1.01514        2.87002
C         -3.27073       -2.27824        3.41233
C         -5.10853       -1.20232        0.98129
S         -6.55990       -1.50483        1.90685
C         -7.49391       -1.60318        0.45716
H         -8.55689       -1.79742        0.51048
C         -6.76990       -1.41054       -0.67936
C         -7.36779       -1.44111       -1.97619
N         -7.88143       -1.44890       -3.01559
C         -5.36560       -1.16735       -0.40853
C         -4.31600       -0.92341       -1.30047
O         -4.49978       -0.91386       -2.64798
C         -4.85942        0.35785       -3.19115
C         -3.05116       -0.73020       -0.75877
S         -1.60105       -0.43178       -1.68566
C          1.62504       -1.20969       -0.34341
C          2.99216       -1.09446       -0.33482
C          3.82564       -2.32440       -0.39661
O          3.36626       -3.44346       -0.45682
N          5.20645       -2.11661       -0.38403
C          6.03973       -3.30417       -0.48954
O          6.40959       -3.74922       -1.53496
O          6.29146       -3.76641        0.72036
C          7.10626       -4.94476        0.75758
C          5.87646       -0.89389       -0.27707
O          7.08650       -0.85515       -0.23841
C          5.01107        0.31323       -0.22036
C          5.59184        1.55647       -0.12754
H          6.67351        1.63227       -0.10150
C          4.78444        2.70698       -0.06524
C          3.41288        2.59803       -0.09608
C          2.59405        3.83280       -0.02283
O          3.05789        4.94796        0.07119
N          1.21375        3.63618       -0.07370
C          0.38830        4.83509       -0.05868
O          0.05262        5.40715       -1.05256
O          0.10337        5.14720        1.19069
C         -0.71436        6.31327        1.34884
C          0.52663        2.42346       -0.14869
O         -0.68487        2.42045       -0.16902
C          1.37221        1.19546       -0.20869
C          2.78617        1.32950       -0.19002
C          3.60188        0.17746       -0.25113
H         -3.10275       -2.10982        4.47567
H         -2.34394       -2.63878        2.95372
H         -4.06431       -3.02134        3.27029
H         -5.01328        0.19500       -4.25735
H         -4.05859        1.08962       -3.03311
H         -5.78860        0.72692       -2.74478
H          1.17735       -2.19669       -0.39632
H          7.23964       -5.16889        1.81426
H          8.06740       -4.75099        0.27724
H          6.59814       -5.76559        0.24713
H          5.22778        3.69387        0.01138
H         -0.84550        6.43031        2.42290
H         -1.67640        6.16330        0.85462
H         -0.21202        7.18328        0.92126
