58
COMP82_040003.log	Energy: -1622047.2659405
C         -1.62779        0.27343       -0.12797
C         -3.08991        0.25873       -0.20912
C         -3.90012        1.19354       -0.79842
H         -3.52663        2.07287       -1.31333
C         -5.27552        0.86633       -0.70290
O         -6.29140        1.61318       -1.21324
C         -5.52855       -0.31607       -0.04273
S         -4.02497       -1.03182        0.47523
C         -6.81573       -0.92451        0.22094
S         -8.32431       -0.20455       -0.28840
C         -9.23752       -1.49468        0.38671
H        -10.31611       -1.49203        0.31213
C         -8.44886       -2.43585        0.97530
H         -8.82567       -3.33041        1.45996
C         -7.06700       -2.10764        0.87845
O         -6.05008       -2.86182        1.37673
C         -0.88953       -0.90934        0.01107
C          0.49545       -0.89526        0.06084
C          1.18719        0.31500       -0.04567
C          2.59906        0.67965        0.06693
C          2.63214        2.18900        0.01761
O          3.59380        2.91471        0.00005
N          1.29113        2.62026       -0.12649
C          0.85011        3.93979       -0.28463
O         -0.27607        4.22800       -0.61960
O          1.80367        4.81839       -0.00754
C          1.43008        6.18545       -0.18414
C          0.42888        1.49776       -0.15053
C         -0.95158        1.50085       -0.19125
C          3.74069       -0.06921        0.13042
C          3.77393       -1.51213       -0.30717
O          2.87361       -2.17546       -0.75753
N          5.11841       -1.94054       -0.19368
C          5.62820       -3.19852       -0.53846
O          6.80891       -3.46026       -0.53291
O          4.66734       -4.05645       -0.85501
C          5.12490       -5.35686       -1.22762
C          5.91491       -0.88518        0.31572
C          7.26109       -0.91834        0.64645
C          7.81851        0.22756        1.20890
H          8.87280        0.22475        1.46874
C          7.04612        1.36003        1.44822
C          5.69959        1.38310        1.10513
C          5.11784        0.26009        0.51004
H         -5.93335        2.42061       -1.59855
H         -6.41027       -3.65658        1.78530
H         -1.40420       -1.86419        0.05515
H          1.03399       -1.82490        0.15393
H          2.31923        6.75691        0.07779
H          0.59648        6.44408        0.47260
H          1.14491        6.37289       -1.22176
H         -1.49221        2.43348       -0.25208
H          4.22241       -5.91154       -1.47994
H          5.64951       -5.83111       -0.39495
H          5.79459       -5.29742       -2.08839
H          7.85056       -1.80574        0.47180
H          7.49434        2.23869        1.90055
H          5.11360        2.27099        1.28259
