56
COMP61_300033.log	Energy: -1735778.8152832
C          2.11485       -0.97130        0.42005
C          0.71822       -0.56185        0.30375
C         -0.32742       -1.26407       -0.23394
C         -0.12672       -2.51207       -0.89401
N          0.08611       -3.49812       -1.46601
C         -1.57428       -0.53475       -0.18249
C         -2.85264       -0.93669       -0.59364
C         -3.14114       -2.37652       -0.88298
O         -2.74081       -3.28017       -0.19009
O         -3.92750       -2.52948       -1.94886
C         -4.26989       -3.88587       -2.26619
C         -3.87836        0.00318       -0.54378
S         -5.54184       -0.27712       -1.01667
C         -5.98313        1.30111       -0.48881
H         -7.01447        1.62308       -0.54906
C         -4.94878        2.04173       -0.00710
C         -5.20347        3.31517        0.59070
N         -5.49855        4.30534        1.11574
C         -3.68640        1.31896       -0.04650
C         -2.41029        1.71416        0.37744
C         -2.11532        3.14371        0.70040
O         -2.58951        4.07431        0.09925
O         -1.22147        3.25580        1.68789
C         -0.80845        4.59476        1.99123
C         -1.38236        0.76944        0.33381
S          0.26542        1.01937        0.85183
C          3.20638       -0.22217        0.10995
C          3.58579        1.08989       -0.43413
O          2.93734        2.06709       -0.70156
N          5.02541        0.95583       -0.57791
C          5.96001        1.89425       -1.04905
O          7.13899        1.64223       -1.11369
O          5.38136        3.03134       -1.39421
C          6.27305        4.03290       -1.89433
C          5.45226       -0.31308       -0.17626
H          6.49934       -0.56642       -0.25822
C          4.38656       -1.02079        0.24520
C          4.00688       -2.35579        0.70615
O          4.66236       -3.31604        1.00040
N          2.55530       -2.25849        0.79421
C          1.79583       -3.32040        1.34734
O          2.12042       -4.47044        1.27950
O          0.71023       -2.84096        1.95473
C         -0.25395       -3.83221        2.33481
H         -4.90470       -3.82479       -3.14832
H         -4.80396       -4.34661       -1.43263
H         -3.36245       -4.45519       -2.47703
H         -0.07891        4.49709        2.79324
H         -1.66835        5.18478        2.31425
H         -0.35792        5.05820        1.11128
H          5.63780        4.88445       -2.13162
H          6.78591        3.67214       -2.78832
H          7.01063        4.29936       -1.13453
H         -1.07849       -3.27433        2.77524
H          0.18133       -4.52468        3.05742
H         -0.59546       -4.37463        1.45090
