37
COMP41_100021.log	Energy: -1531596.4702130
C         -2.61855        0.59343       -0.06331
C         -1.19097        0.34020       -0.02727
C         -0.20384        1.27416       -0.12645
F         -0.46111        2.57916       -0.26780
C          1.13669        0.77815       -0.06271
C          2.36167        1.45326       -0.14417
O          2.45680        2.80159       -0.31138
C          2.29082        3.55551        0.88655
C          3.51488        0.68310       -0.08021
S          5.14441        1.31367       -0.15854
C          5.79736       -0.29281        0.01963
H          6.86482       -0.45960        0.03653
C          4.83655       -1.23275        0.12202
F          5.09195       -2.53625        0.25689
C          3.48837       -0.72531        0.06457
C          2.26297       -1.39578        0.14858
O          2.16087       -2.74206        0.32452
C          2.32785       -3.50774       -0.86610
C          1.10689       -0.62708        0.08234
S         -0.51182       -1.27653        0.16139
C         -3.68460       -0.26707        0.02324
C         -3.91820       -1.72686        0.18035
O         -3.13933       -2.64523        0.28265
N         -5.31279       -1.85662        0.19060
H         -5.76872       -2.75238        0.29018
C         -6.02028       -0.65499        0.05967
O         -7.22060       -0.53910        0.04502
C         -4.95098        0.37080       -0.05203
C         -4.88596        1.71594       -0.19832
H         -5.69076        2.43346       -0.27997
S         -3.23977        2.22828       -0.24521
H          2.44383        4.59936        0.61114
H          3.03335        3.25909        1.63651
H          1.28327        3.43010        1.29588
H          2.16479       -4.54782       -0.58266
H          3.33928       -3.39228       -1.26818
H          1.59113       -3.21300       -1.62240
