31
COMP27_210100.log	Energy: -2030246.7223833
C         -3.06927        0.48664       -0.19859
C         -1.72072       -0.06169       -0.34206
C         -1.37437       -1.31218       -0.76348
F         -2.24145       -2.22084       -1.18278
C          0.02379       -1.56361       -0.74898
Cl         0.67846       -3.07605       -1.25734
C          0.76150       -0.49015       -0.31424
S         -0.29268        0.83230        0.08488
C          2.20382       -0.42182       -0.19184
C          2.89063        0.68901        0.13082
C          4.32885        0.82141        0.27948
C          5.36623       -0.08073        0.23992
Cl         5.24380       -1.78311       -0.01258
C          6.63808        0.52742        0.44764
F          7.75799       -0.18588        0.44538
C          6.58625        1.86921        0.64412
H          7.41127        2.54278        0.82061
S          4.95864        2.41924        0.57732
C         -4.10528       -0.24094        0.48476
N         -3.96195       -1.43027        1.06097
S         -5.41027       -1.81229        1.69602
N         -6.26846       -0.49397        1.27755
C         -5.43364        0.30299        0.61353
C         -5.75296        1.58497        0.07920
H         -6.74433        2.00926        0.17486
C         -4.75115        2.25236       -0.54305
F         -4.94635        3.45818       -1.07162
C         -3.42985        1.71176       -0.68283
F         -2.55400        2.48055       -1.32719
H          2.71933       -1.35485       -0.38718
H          2.34015        1.61434        0.29860
