37
COMP45_000021.log	Energy: -918815.0299825
C          2.04070       -0.97841        0.12083
C          0.57699       -1.04442        0.05506
C         -0.16490        0.08320        0.40430
C         -1.54438        0.00153        0.28302
N         -2.49395        0.96517        0.53307
O         -2.21532        2.24769        0.90680
C         -1.86497        3.04175       -0.23545
C         -3.75654        0.49025        0.24993
C         -4.98857        1.13347        0.34240
C         -6.11115        0.39541       -0.00269
H         -7.08970        0.86209        0.05818
C         -6.01169       -0.94141       -0.42255
C         -4.77825       -1.56985       -0.50758
C         -3.62802       -0.85214       -0.17167
C         -2.21307       -1.16353       -0.15314
C         -1.45175       -2.28892       -0.47328
C         -0.07183       -2.22356       -0.37338
C          2.89214        0.08439       -0.03499
C          2.80527        1.53456       -0.35820
O          1.85336        2.26292       -0.52966
N          4.14027        1.95252       -0.42641
H          4.39438        2.90970       -0.62470
C          5.09129        0.95441       -0.17290
O          6.28803        1.10512       -0.17572
C          4.26858       -0.25671        0.07680
C          4.49813       -1.56818        0.32907
H          5.44000       -2.08421        0.45277
S          2.99381       -2.41072        0.44318
H          0.31219        0.99541        0.73835
H         -1.72231        4.04893        0.15809
H         -2.67662        3.03255       -0.97022
H         -0.93432        2.68341       -0.68617
H         -5.05651        2.16220        0.67878
H         -6.91358       -1.48694       -0.68139
H         -4.70540       -2.60410       -0.83154
H         -1.93102       -3.20133       -0.81478
H          0.52131       -3.08696       -0.65982
