24
COMP34_400000.log	Energy: -1132944.6767855
C         -1.39861        0.04855        0.02287
C          0.06819        0.00874        0.02074
C          0.88039       -1.01857       -0.41111
O          0.52611       -2.20606       -0.94184
C          2.25905       -0.68377       -0.29141
S          3.73646       -1.51171       -0.64257
C          4.64954       -0.14149       -0.06245
H          5.73095       -0.17206       -0.08170
C          3.86162        0.88275        0.37524
O          4.23806        2.07950        0.88528
C          2.47617        0.56600        0.23968
S          1.00403        1.38666        0.60164
C         -2.17272       -1.05310        0.39957
F         -1.56806       -2.19708        0.78517
C         -3.55915       -1.03287        0.38873
F         -4.22325       -2.12956        0.75370
C         -4.24500        0.11097        0.02128
H         -5.32746        0.13705        0.01742
C         -3.50360        1.22164       -0.34505
F         -4.12249        2.34233       -0.71462
C         -2.11540        1.19269       -0.35291
F         -1.46903        2.29457       -0.73420
H         -0.32290       -2.48461       -0.57242
H          5.20088        2.13131        0.90259
