34
COMP57_300100.log	Energy: -1694556.9582816
C          1.70536       -0.03676       -0.01836
C          0.35510        0.48003       -0.08897
C         -0.03200        1.77995       -0.27737
H          0.65580        2.60673       -0.41022
C         -1.44533        1.93785       -0.28471
C         -2.09307        3.19494       -0.48345
N         -2.61786        4.21475       -0.65320
C         -2.13657        0.75289       -0.10674
S         -1.02939       -0.56358        0.08645
C         -3.57580        0.59459       -0.08097
C         -4.21143       -0.59152       -0.11000
C         -5.64940       -0.78802       -0.05956
C         -6.67352        0.04684        0.35643
C         -6.47653        1.35469        0.89140
N         -6.33048        2.41819        1.33112
C         -7.96986       -0.54486        0.24131
H         -8.88178       -0.03426        0.52390
C         -7.91934       -1.81230       -0.24836
H         -8.74373       -2.48649       -0.43339
S         -6.30415       -2.30485       -0.57957
C          2.13565       -1.33239        0.11613
F          1.30628       -2.36340        0.21281
N          3.45897       -1.56986        0.15314
C          4.10449       -0.43909        0.04664
S          3.11462        0.97748       -0.10189
C          5.55185       -0.33715        0.05191
S          6.55927       -1.73953        0.20682
C          7.93672       -0.71230        0.11971
H          8.94845       -1.08459        0.17049
C          7.51717        0.57710       -0.01702
F          8.32996        1.61591       -0.11330
N          6.18508        0.80068       -0.05640
H         -4.13606        1.52559       -0.04825
H         -3.62524       -1.50526       -0.19778
