50
COMP91_300010.log	Energy: -1499751.9511307
C          0.82267       -0.18171       -0.20411
C         -0.65885       -0.18042       -0.17619
C         -1.43711       -0.04963        0.93371
C         -0.90410        0.20996        2.22977
N         -0.48595        0.42330        3.29032
C         -2.85259       -0.16425        0.65846
C         -3.91571       -0.07251        1.55300
H         -3.73708        0.11153        2.60774
C         -5.19505       -0.22465        1.03847
S         -6.69711       -0.15633        1.93751
C         -7.61606       -0.44405        0.50232
H         -8.69552       -0.49580        0.55088
C         -6.84801       -0.58561       -0.61062
C         -7.36943       -0.82745       -1.91652
N         -7.75601       -1.02431       -2.99187
C         -5.42983       -0.46398       -0.33682
C         -4.36513       -0.55599       -1.23184
H         -4.54396       -0.73859       -2.28684
C         -3.08731       -0.40436       -0.71703
S         -1.58554       -0.48074       -1.61425
C          1.45733       -1.44453       -0.14548
C          2.82532       -1.54921       -0.09824
C          3.45401       -2.89812       -0.02949
O          2.78844       -3.91376       -0.03716
N          4.84841       -2.93092        0.04323
C          5.51527       -4.22992        0.12001
C          5.68338       -1.81128        0.04617
O          6.88937       -1.94188        0.10704
C          5.03006       -0.47724       -0.02848
C          5.79913        0.66358       -0.02119
H          6.87798        0.56917        0.03826
C          5.18464        1.92836       -0.08442
C          3.81386        2.03783       -0.15629
C          3.19955        3.38983       -0.21338
O          3.86929        4.40276       -0.19831
N          1.80590        3.43239       -0.28916
C          1.15165        4.73829       -0.36615
C          0.96075        2.32478       -0.34498
O         -0.23497        2.48434       -0.48760
C          1.58926        0.97485       -0.23140
C          3.00118        0.87955       -0.16732
C          3.62221       -0.38606       -0.09927
H          0.85940       -2.34993       -0.12587
H          4.74747       -4.99929        0.13979
H          6.12573       -4.27453        1.02365
H          6.16509       -4.36316       -0.74718
H          5.77809        2.83609       -0.07383
H          1.91680        5.50021       -0.23923
H          0.39843        4.81380        0.41944
H          0.65990        4.85233       -1.33452
