46
COMP92_000000.log	Energy: -1336202.9134598
C          0.08889       -0.29010        0.42472
C         -1.36912       -0.44766        0.59752
C         -2.00227       -1.09532        1.62178
H         -1.47550       -1.48855        2.48392
C         -3.41160       -1.15942        1.45606
H         -4.08801       -1.59408        2.18310
C         -3.84084       -0.58538        0.28832
S         -2.50088        0.03885       -0.62169
C         -5.19781       -0.47415       -0.22762
S         -6.37923       -1.70469        0.10766
C         -7.59140       -0.86101       -0.78021
H         -8.58998       -1.26843       -0.85745
C         -7.10907        0.29420       -1.31968
H         -7.70948        0.97055       -1.91630
C         -5.73925        0.51780       -1.00318
H         -5.17981        1.39309       -1.31396
C          0.83566       -1.49536        0.35302
C          2.18993       -1.49585        0.13810
C          2.92163       -2.79084        0.07389
O          2.35918       -3.85521        0.23686
N          4.29368       -2.71801       -0.18328
C          5.05699       -3.96244       -0.25508
C          5.01661       -1.53961       -0.37884
O          6.21143       -1.57978       -0.59702
C          4.26221       -0.26054       -0.30424
C          4.92233        0.93336       -0.48756
H          5.98820        0.92071       -0.68757
C          4.21253        2.14424       -0.41299
C          2.85952        2.14916       -0.15162
C          2.15204        3.45245       -0.07496
O          2.72119        4.50908       -0.26982
N          0.79854        3.39628        0.24931
C          0.07562        4.65511        0.42158
C          0.07384        2.23169        0.52916
O         -1.05994        2.32637        0.95139
C          0.75929        0.92402        0.30147
C          2.15560        0.93628        0.03936
C          2.87446       -0.27584       -0.04448
H          0.31943       -2.44387        0.45545
H          4.36435       -4.78564       -0.09674
H          5.83342       -3.96381        0.51233
H          5.53359       -4.04667       -1.23348
H          4.71402        3.09476       -0.55846
H          0.71075        5.45549        0.04955
H         -0.15248        4.81591        1.47783
H         -0.86177        4.61353       -0.13430
