36
COMP57_040400.log	Energy: -1643067.7327576
C         -1.68016       -0.63661       -0.10114
C         -0.24008       -0.70715        0.06741
C          0.45617       -1.72396        0.68692
O         -0.09006       -2.82282        1.25825
C          1.86322       -1.53836        0.69125
H          2.54089       -2.24343        1.15617
C          2.24503       -0.36942        0.08422
S          0.86739        0.50449       -0.51523
C          3.57194        0.19642       -0.09758
C          4.71862       -0.42235        0.23304
C          6.04676        0.14660        0.08163
C          6.42849        1.40314       -0.32046
H          5.72746        2.18673       -0.58964
C          7.84244        1.57313       -0.33568
O          8.48696        2.71430       -0.69131
C          8.52174        0.45239        0.05502
H          9.59175        0.32934        0.13109
S          7.43722       -0.82515        0.44456
C         -2.48741       -1.60882       -0.65505
O         -2.07660       -2.78546       -1.16393
N         -3.82091       -1.35724       -0.67609
C         -4.06303       -0.18370       -0.15818
S         -2.68282        0.69342        0.41151
C         -5.39912        0.38065       -0.05723
S         -6.78627       -0.48678       -0.62857
C         -7.76438        0.84173       -0.12570
H         -8.83716        0.83690       -0.25632
C         -6.97465        1.81653        0.42422
O         -7.36006        3.00374        0.93280
N         -5.64050        1.55238        0.46173
H         -1.05035       -2.71079        1.30928
H          3.61051        1.19168       -0.53539
H          4.67647       -1.42690        0.64943
H          7.83511        3.38743       -0.91617
H         -1.11012       -2.77527       -1.22385
H         -8.31805        3.08318        0.85715
