31
COMP27_220100.log	Energy: -2482523.4626965
C         -3.26912       -0.48738       -0.29896
C         -1.92156        0.09235       -0.35468
C         -1.57814        1.39801       -0.56051
Cl        -2.71732        2.64694       -0.89050
C         -0.16905        1.61956       -0.50131
Cl         0.53825        3.17684       -0.72934
C          0.55665        0.48124       -0.24825
S         -0.51228       -0.87772       -0.08533
C          1.99777        0.37972       -0.12313
C          2.66005       -0.75454        0.16545
C          4.09541       -0.93071        0.31015
C          5.17584       -0.10721        0.09001
Cl         5.08908        1.51598       -0.48841
C          6.42981       -0.73365        0.37603
Cl         7.95339        0.05667        0.18952
C          6.29958       -2.01699        0.80727
H          7.08929       -2.69899        1.08653
S          4.65053       -2.48318        0.87103
C         -4.20045       -0.11303        0.72847
N         -3.95987        0.74462        1.71521
S         -5.32211        0.81718        2.60194
N         -6.26063       -0.23093        1.78247
C         -5.52411       -0.67919        0.76780
C         -5.93698       -1.63474       -0.20621
H         -6.92730       -2.07185       -0.18724
C         -5.02951       -1.97713       -1.15231
F         -5.31966       -2.86258       -2.10247
C         -3.71034       -1.41136       -1.19995
F         -2.92789       -1.83271       -2.18849
H          2.53169        1.31040       -0.27296
H          2.08650       -1.66719        0.32540
