34
COMP52_440400.log	Energy: -1688883.5664387
C         -1.03047       -0.03576        0.35185
C          0.36823        0.34963        0.27744
C          0.91073        1.57347        0.54973
O          0.28177        2.71204        0.93666
C          2.32726        1.61699        0.41368
O          3.04775        2.73860        0.64987
C          2.87933        0.41756        0.04766
S          1.62567       -0.78403       -0.17308
C          4.28048        0.11409       -0.14856
S          5.54275        1.31024        0.05102
C          6.77668        0.16315       -0.34748
H          7.81657        0.45912       -0.36022
C          6.24839       -1.05963       -0.61464
O          6.86245       -2.22585       -0.96445
C          4.82646       -1.09132       -0.50222
O          4.10129       -2.21317       -0.72603
C         -1.58241       -1.03696        1.12263
O         -0.92524       -1.85308        1.96027
N         -2.92713       -1.20482        1.02960
C         -3.43488       -0.34290        0.19274
S         -2.30418        0.72612       -0.56867
C         -4.85673       -0.25986       -0.09875
S         -5.98655       -1.35021        0.63289
C         -7.24588       -0.55173       -0.23356
H         -8.27890       -0.85515       -0.14022
C         -6.71691        0.45784       -0.99326
O         -7.37136        1.31040       -1.80718
N         -5.36823        0.61941       -0.91508
H         -0.65717        2.53263        1.08339
H          2.43351        3.43854        0.91299
H          7.81489       -2.09194       -1.02383
H          4.71358       -2.91843       -0.97942
H          0.01979       -1.64213        1.92394
H         -8.31275        1.10229       -1.78979
