42
COMP65_000012.log	Energy: -775473.9972804
C         -1.29234        0.64494        0.02027
C          0.10590        0.23116        0.08133
C          1.13742        1.04724       -0.40103
C          2.43548        0.56251       -0.32120
N          3.61488        1.16097       -0.72270
H          3.68737        2.06204       -1.16398
C          4.67343        0.31613       -0.45084
C          6.03705        0.49829       -0.68126
C          6.89274       -0.52531       -0.30169
H          7.95960       -0.41055       -0.46816
C          6.41151       -1.70342        0.29172
C          5.05507       -1.87789        0.51762
C          4.17146       -0.86198        0.14505
C          2.73608       -0.70419        0.22744
C          1.69444       -1.50703        0.69564
C          0.39353       -1.04420        0.62081
C         -2.44144       -0.10823        0.09492
C         -2.90982       -1.48582        0.15782
O         -2.37771       -2.56661        0.32684
N         -4.31465       -1.32239       -0.03660
O         -5.20568       -2.32919        0.20636
C         -5.26625       -3.22161       -0.90900
C         -4.70658       -0.00657       -0.10950
H         -5.75285        0.24346       -0.21237
C         -3.58652        0.75668       -0.04591
C         -3.13049        2.13102       -0.17447
O         -3.68497        3.20424       -0.23616
N         -1.71117        1.96188       -0.17787
O         -0.89975        3.05672       -0.11456
C         -0.77669        3.52275        1.23267
H          0.92580        2.01779       -0.83056
H          6.41671        1.40642       -1.13956
H          7.11188       -2.48217        0.57590
H          4.68228       -2.78898        0.97647
H          1.89653       -2.48882        1.11249
H         -0.42008       -1.67762        0.95611
H         -6.01141       -3.96706       -0.62846
H         -4.29613       -3.69904       -1.06664
H         -5.58534       -2.68999       -1.81232
H         -0.12846        4.39777        1.17057
H         -0.31261        2.75586        1.86263
H         -1.75557        3.80965        1.62588
