23
COMP24_100200.log	Energy: -1808625.1357253
C          0.96293        0.00617       -0.04025
C         -0.50536       -0.00766       -0.03367
C         -1.31819       -0.69132        0.82103
F         -0.87333       -1.46666        1.80504
C         -2.70070       -0.49454        0.57013
S         -4.18033       -1.05415        1.27177
C         -5.09732       -0.12821        0.11697
H         -6.17739       -0.14053        0.13001
C         -4.30013        0.55930       -0.73987
F         -4.74384        1.34508       -1.71872
C         -2.91266        0.35821       -0.49245
S         -1.43926        0.92914       -1.18733
C          1.66163        1.24237        0.16632
N          1.09221        2.42995        0.36934
S          2.30677        3.49540        0.54517
N          3.59025        2.50974        0.38307
C          3.09539        1.28867        0.17758
C          3.85173        0.10171       -0.01042
H          4.93403        0.13448        0.00543
C          3.17715       -1.06447       -0.20799
Cl         4.09704       -2.51739       -0.44248
C          1.73155       -1.11879       -0.23541
Cl         0.97058       -2.64216       -0.54605
