60
COMP87_220003.log	Energy: -2729787.6863685
C          0.08785       -0.63327       -0.22830
C         -1.36650       -0.81380       -0.36593
C         -2.07515       -1.83385       -0.94290
Cl        -1.35307       -3.20050       -1.71412
C         -3.49113       -1.64398       -0.89717
Cl        -4.57577       -2.82411       -1.54279
C         -3.87075       -0.47335       -0.28423
S         -2.45389        0.38485        0.24356
C         -5.15883        0.13607        0.01095
C         -6.34892       -0.21935       -0.50676
C         -7.64190        0.38155       -0.21485
C         -8.03669        1.51223        0.46294
Cl        -6.97518        2.65050        1.21164
C         -9.45535        1.69449        0.48080
Cl       -10.23551        3.02540        1.25729
C        -10.12779        0.71301       -0.17837
H        -11.19645        0.62147       -0.30605
S         -9.04550       -0.44608       -0.83005
C          0.67853        0.59003       -0.56039
C          2.04344        0.79078       -0.41382
C          2.84951       -0.23892        0.07680
C          4.29924       -0.39257        0.24546
C          4.49906       -1.80671        0.73279
O          5.51787       -2.32477        1.11522
N          3.21964       -2.40643        0.78193
C          2.92505       -3.71334        1.19780
O          1.80444       -4.09252        1.44403
O          4.01300       -4.46748        1.26134
C          3.78873       -5.80512        1.71161
C          2.23763       -1.47013        0.38447
C          0.87689       -1.68354        0.25392
C          5.34188        0.47195        0.07206
C          5.14592        1.96939        0.02567
O          4.12969        2.59047        0.21254
N          6.42258        2.54256       -0.16186
C          6.71939        3.90990       -0.24888
O          7.84494        4.34802       -0.20266
O          5.62676        4.64412       -0.40825
C          5.85669        6.05247       -0.47743
C          7.40188        1.52078       -0.21882
C          8.76237        1.66215       -0.44407
C          9.52715        0.50145       -0.53543
H         10.59581        0.58991       -0.70542
C          8.94257       -0.75601       -0.41912
C          7.57883       -0.88384       -0.18616
C          6.78719        0.26240       -0.06448
H         -5.11352        0.95904        0.71601
H         -6.38880       -1.03839       -1.21673
H          0.06479        1.39426       -0.95406
H          2.47273        1.74656       -0.66807
H          4.77635       -6.26203        1.74637
H          3.13984       -6.33977        1.01433
H          3.32970       -5.80346        2.70246
H          0.43806       -2.62912        0.53443
H          4.86877        6.49584       -0.59166
H          6.49055        6.29595       -1.33307
H          6.33425        6.40805        0.43816
H          9.20850        2.64053       -0.54191
H          9.55272       -1.64949       -0.50217
H          7.13886       -1.86264       -0.08036
