56
COMP97_430002.log	Energy: -1689129.8775787
C          1.23364        0.01722        0.20462
C         -0.18339        0.25628        0.54812
C         -0.67245        0.78512        1.71726
C          0.13318        1.28416        2.77938
N          0.74008        1.70251        3.67541
C         -2.10295        0.81601        1.75946
O         -2.83385        1.27763        2.79214
C         -2.68584        0.29598        0.62954
S         -1.46083       -0.23427       -0.48925
C         -4.10899        0.20065        0.38388
C         -4.69243       -0.29179       -0.72616
C         -6.13087       -0.43387       -0.89373
C         -7.06252       -0.78116        0.05599
O         -6.83388       -1.07736        1.34991
C         -8.39663       -0.84804       -0.46569
C         -9.53917       -1.19210        0.31726
N        -10.47486       -1.47205        0.94122
C         -8.44688       -0.55934       -1.80361
H         -9.32761       -0.53860       -2.42970
S         -6.89975       -0.21130       -2.44266
C          1.66387       -1.33049        0.16677
C          2.97691       -1.65144       -0.06534
C          3.37470       -3.08722       -0.08727
O          2.59743       -3.99650        0.08947
N          4.73557       -3.31462       -0.31685
O          5.10317       -4.62260       -0.47423
C          5.51036       -5.19274        0.77183
C          5.75032       -2.36567       -0.50151
O          6.90219       -2.69666       -0.66140
C          5.29950       -0.94670       -0.46946
C          6.22585        0.05426       -0.64559
H          7.26556       -0.21127       -0.80292
C          5.81885        1.40087       -0.62100
C          4.49682        1.72766       -0.42286
C          4.11662        3.16441       -0.40660
O          4.90366        4.06966       -0.56110
N          2.75189        3.40032       -0.22413
O          2.37633        4.71182       -0.13187
C          2.08548        5.25822       -1.42080
C          1.71617        2.46548       -0.10836
O          0.56210        2.82616       -0.10785
C          2.15166        1.03596       -0.02164
C          3.51931        0.71769       -0.23638
C          3.93561       -0.63280       -0.25803
H         -2.25713        1.68074        3.45591
H         -4.72311        0.61083        1.18379
H         -4.07184       -0.62475       -1.55823
H         -5.88121       -1.19128        1.48211
H          0.95096       -2.13016        0.34057
H          5.75564       -6.22766        0.53237
H          4.68966       -5.16414        1.49451
H          6.39575       -4.67945        1.15790
H          6.53809        2.20165       -0.75462
H          1.81594        6.29564       -1.22182
H          1.24091        4.73499       -1.87804
H          2.97122        5.22244       -2.06179
