46
COMP77_440000.log	Energy: -1813715.9423303
C          1.31245        1.01057        0.46328
C          0.07179        0.26987        0.56382
C         -0.22236       -0.88272        1.25629
O          0.59920       -1.69730        1.93548
C         -1.61671       -1.18985        1.27197
O         -2.08410       -2.28991        1.89701
C         -2.39749       -0.28319        0.60798
S         -1.40300        0.97132       -0.08577
C         -3.83268       -0.35935        0.45188
C         -4.60901        0.55199       -0.16925
C         -6.04037        0.41718       -0.36521
C         -6.77665       -0.72902       -0.51518
O         -6.33996       -2.01859       -0.52759
C         -8.17314       -0.49983       -0.72018
O         -9.05412       -1.51192       -0.89445
C         -8.48658        0.82397       -0.72782
H         -9.46325        1.26515       -0.85923
S         -7.08365        1.80945       -0.49585
C          2.63871        0.63414        0.27495
C          3.15647       -0.72104        0.05158
O          2.46514       -1.74306        0.14797
C          4.57970       -0.81900       -0.30831
C          5.21474       -2.00106       -0.60706
C          4.66297       -3.39043       -0.67918
S          6.88675       -1.70337       -0.92832
C          6.75549        0.00038       -0.65786
C          7.94396        0.90136       -0.77889
C          5.46207        0.31918       -0.33866
C          4.98134        1.68083       -0.05403
O          5.70121        2.66730       -0.05688
C          3.52477        1.77086        0.21110
C          2.88600        2.96179        0.35430
H          3.34139        3.94214        0.32569
S          1.20192        2.74953        0.57772
H          1.40995       -1.81102        1.37689
H         -1.31012       -2.74913        2.26040
H         -4.28495       -1.22309        0.93575
H         -4.15162        1.45764       -0.56770
H         -5.38714       -2.02903       -0.69824
H         -8.55054       -2.33829       -0.88409
H          3.82832       -3.43278       -1.38394
H          4.27001       -3.69546        0.29472
H          5.42790       -4.10588       -0.99199
H          8.84291        0.34379       -1.05454
H          8.12319        1.41956        0.16717
H          7.75990        1.67366       -1.53087
