42
COMP92_030001.log	Energy: -1402600.9775221
C         -0.69148       -0.16681        0.40269
C          0.77802       -0.16002        0.59325
C          1.45463       -0.43865        1.74198
H          0.97700       -0.63198        2.69430
C          2.86938       -0.43716        1.55773
C          3.78324       -0.71607        2.61975
N          4.50433       -0.94419        3.49864
C          3.24801       -0.17672        0.25433
S          1.85673        0.07927       -0.73577
C          4.59360       -0.08776       -0.29930
S          5.85728        0.73432        0.54439
C          6.99353        0.41337       -0.70414
H          8.01516        0.75319       -0.60578
C          6.44179       -0.28530       -1.73296
H          6.97776       -0.59907       -2.61942
C          5.06211       -0.57440       -1.50672
C          4.26815       -1.32089       -2.43092
N          3.64060       -1.92500       -3.19632
C         -1.31968       -1.43541        0.41211
C         -2.67155       -1.56393        0.22167
C         -3.28735       -2.91998        0.24306
O         -2.66157       -3.93873        0.44054
N         -4.65777       -2.94734        0.01932
H         -5.08866       -3.86501        0.02772
C         -5.51435       -1.87798       -0.21472
O         -6.69990       -2.05410       -0.39595
C         -4.86963       -0.53600       -0.22067
C         -5.63867        0.58295       -0.43838
H         -6.70390        0.46409       -0.60454
C         -5.04036        1.85555       -0.44074
C         -3.68795        1.99184       -0.22616
C         -3.09599        3.35354       -0.22649
O         -3.72955        4.36949       -0.41796
N         -1.73259        3.39283        0.02227
H         -1.31501        4.31599        0.05755
C         -0.85964        2.34143        0.27322
O          0.30255        2.57163        0.52986
C         -1.46182        0.97358        0.21079
C         -2.86498        0.85590       -0.00370
C         -3.47361       -0.42048       -0.00262
H         -0.72259       -2.32857        0.56480
H         -5.63036        2.74994       -0.61011
