38
COMP62_410002.log	Energy: -1362932.2877125
C          1.65710        0.63302        0.00736
C          0.33098        0.12691        0.10674
C         -0.06271       -1.12153        0.60703
O          0.63883       -2.10447        1.12505
C         -1.48567       -1.24602        0.61241
F         -2.06402       -2.33732        1.09485
C         -2.16460       -0.17423        0.11948
S         -1.07310        1.07923       -0.37683
C         -3.60053       -0.02670       -0.01129
S         -4.41528        1.48171        0.29008
C         -5.95580        0.79407       -0.09245
H         -6.84976        1.40036       -0.04316
C         -5.85804       -0.52393       -0.42571
O         -6.83372       -1.38877       -0.78083
C         -4.50506       -0.98031       -0.37859
F         -4.18711       -2.22619       -0.70310
C          2.89658        0.00349        0.09072
C          3.49430       -1.29498        0.13541
O          3.03853       -2.44138        0.24626
N          4.86205       -1.01384       -0.01542
O          5.83577       -1.95609        0.13177
C          5.95518       -2.74686       -1.05587
C          5.13274        0.33296       -0.13960
H          6.14838        0.67653       -0.26761
C          3.94004        0.97881       -0.07857
C          3.33603        2.28957       -0.26742
O          3.76503        3.40845       -0.41459
N          1.94202        1.97147       -0.21575
O          0.99275        2.93614       -0.35102
C          0.80809        3.65204        0.87898
H          1.57703       -2.21654        0.77388
H         -7.68331       -0.93223       -0.77435
H          6.75426       -3.45607       -0.83766
H          6.22983       -2.11868       -1.91052
H          5.02163       -3.27940       -1.25277
H          0.01228        4.36611        0.66645
H          1.72856        4.17605        1.14594
H          0.49771        2.96800        1.67540
