34
COMP71_000011.log	Energy: -1574905.4000451
C         -0.87332        1.30323       -0.17467
C          0.52754        0.91170       -0.06459
C          1.14362       -0.21298       -0.51250
H          0.61157       -1.02284       -0.98913
C          2.56035       -0.22145       -0.27537
C          3.48159       -1.21768       -0.60672
H          3.15403       -2.12598       -1.10274
C          4.81201       -1.00722       -0.27928
S          6.15144       -2.09326       -0.58349
C          7.26519       -0.97266        0.15172
H          8.31500       -1.22925        0.20474
C          6.67689        0.15620        0.60385
H          7.21407        0.96287        1.08883
C          5.25314        0.17510        0.37291
C          4.33172        1.17072        0.70440
H          4.65614        2.07890        1.20286
C          3.00173        0.95976        0.37452
S          1.66399        2.03698        0.69018
C         -2.05181        0.57444       -0.15622
C         -2.20205       -0.89388        0.00749
O         -1.27644       -1.68754        0.03478
C         -3.60592       -1.36407        0.12948
C         -3.95244       -2.66852        0.33767
H         -3.28060       -3.50784        0.45326
S         -5.65853       -2.86183        0.39925
C         -5.92860       -1.18556        0.13814
H         -6.92533       -0.76948        0.08700
C         -4.74946       -0.50889        0.01436
C         -4.61911        0.94370       -0.21266
O         -5.57316        1.69105       -0.33408
C         -3.21441        1.42264       -0.26420
C         -2.90922        2.74477       -0.37687
H         -3.61339        3.56069       -0.46544
S         -1.22059        3.00366       -0.35306
