37
COMP41_300001.log	Energy: -1428466.6084470
C         -2.57768        0.43662       -0.33634
C         -1.12556        0.33243       -0.23415
C         -0.21807        1.32762        0.03745
C         -0.63112        2.66093        0.33654
N         -0.97827        3.74094        0.57970
C          1.15915        0.86977        0.03486
C          2.33887        1.59463        0.27397
C          2.34116        3.06897        0.58157
C          3.51553        0.85617        0.20924
S          5.11390        1.53686        0.47416
C          5.85050        0.00627        0.21118
H          6.92529       -0.10018        0.27400
C          4.96558       -0.98888       -0.06492
C          5.44481       -2.31281       -0.30566
N          5.87676       -3.37250       -0.49553
C          3.57951       -0.53719       -0.07589
C          2.40185       -1.25641       -0.31417
C          2.32310       -2.72790       -0.62313
C          1.22279       -0.51314       -0.24988
S         -0.36076       -1.20041       -0.50496
C         -3.54496       -0.42844        0.10103
C         -3.62663       -1.70118        0.87759
O         -2.75609       -2.39653        1.33970
N         -5.00065       -1.95176        0.97236
H         -5.36828       -2.76349        1.44854
C         -5.82494       -1.00340        0.34990
O         -7.02877       -1.03250        0.30876
C         -4.86381       -0.01517       -0.20881
C         -4.92792        1.15491       -0.89523
H         -5.79907        1.69230       -1.24419
S         -3.34369        1.77043       -1.16687
H          1.85141        3.64146       -0.21124
H          3.35730        3.45701        0.68691
H          1.80824        3.28179        1.51305
H          3.29361       -3.21933       -0.63473
H          1.86021       -2.88705       -1.60449
H          1.70110       -3.24004        0.12068
