38
COMP67_010000.log	Energy: -1222826.0766645
C          2.76257       -0.62130       -0.07227
C          1.33830       -0.81021        0.10621
C          0.64441       -1.81978        0.73357
F          1.23748       -2.86483        1.31289
C         -0.75283       -1.65615        0.78035
H         -1.41504       -2.35588        1.27370
C         -1.14553       -0.48541        0.17371
S          0.21461        0.40296       -0.42125
C         -2.48201        0.05597       -0.00804
C         -3.61224       -0.65333        0.15273
C         -4.95412       -0.11283        0.01407
C         -5.36888        1.19074       -0.09493
H         -4.71625        2.05418       -0.06700
C         -6.77646        1.28382       -0.22758
F         -7.39346        2.46082       -0.34608
C         -7.43389        0.09133       -0.21457
H         -8.49655       -0.08054       -0.29678
S         -6.31106       -1.20029       -0.03913
C          3.47154        0.55164       -0.03407
C          3.34779        1.97357        0.25251
O          2.40030        2.69968        0.49116
N          4.69681        2.43321        0.17833
C          5.05374        3.81962        0.37416
C          5.56139        1.40396       -0.12283
H          6.62508        1.58727       -0.20328
C          4.85313        0.25418       -0.26537
C          4.98291       -1.17817       -0.49219
O          5.92472       -1.89246       -0.76587
N          3.64523       -1.65817       -0.35014
C          3.32530       -3.03305       -0.67443
H         -2.54276        1.10191       -0.30107
H         -3.54316       -1.71278        0.39254
H          4.13536        4.35113        0.62958
H          5.47615        4.25220       -0.53842
H          5.77210        3.92635        1.19277
H          4.12115       -3.40409       -1.32247
H          2.36895       -3.08010       -1.20062
H          3.27666       -3.65683        0.22020
