33
COMP42_140002.log	Energy: -1506262.4672430
C          1.69114        1.24495       -0.04289
C          0.24767        1.18475       -0.00926
C         -0.62169        2.23934        0.06977
F         -0.25199        3.53090        0.13064
C         -1.99137        1.90616        0.08650
O         -2.99501        2.81242        0.16310
C         -2.18949        0.54831        0.01633
S         -0.66529       -0.30129       -0.06978
C         -3.45546       -0.14962        0.00829
S         -4.99479        0.68023        0.10843
C         -5.87821       -0.79888        0.03551
H         -6.95745       -0.81491        0.06548
C         -5.03337       -1.85256       -0.05782
F         -5.38930       -3.14463       -0.13402
C         -3.65452       -1.50523       -0.07458
O         -2.64903       -2.40322       -0.15849
C          2.63333        0.24910       -0.10058
C          2.65754       -1.23069       -0.14459
O          1.77069       -2.04954       -0.14574
N          4.03249       -1.53470       -0.16044
O          4.47858       -2.80678       -0.33118
C          4.68924       -3.43831        0.93407
C          4.90631       -0.43424       -0.16209
O          6.10944       -0.48779       -0.17885
C          3.97561        0.72144       -0.11360
C          4.08946        2.06887       -0.06931
H          4.98336        2.67713       -0.06690
S          2.52237        2.79576       -0.01050
H         -2.61366        3.69944        0.19801
H         -3.02374       -3.29118       -0.22992
H          5.04899       -4.43867        0.69102
H          3.74887       -3.50359        1.48973
H          5.44661       -2.89807        1.51018
