36
COMP47_320000.log	Energy: -1981304.8098771
C          3.26820        0.59073       -0.36476
C          1.85554        0.89160       -0.17458
C          1.24265        2.08665        0.11212
Cl         2.06668        3.57843        0.38179
C         -0.17862        1.99998        0.19940
C         -0.99911        3.12377        0.50381
N         -1.68250        4.02829        0.74948
C         -0.64885        0.71610       -0.03180
S          0.66448       -0.35621       -0.33940
C         -1.99037        0.15893       -0.04718
C         -3.12982        0.84986        0.14954
C         -4.47250        0.29568        0.12069
C         -4.95215       -0.95994       -0.21676
C         -4.14071       -2.04838       -0.64770
N         -3.46730       -2.92600       -0.99655
C         -6.37657       -1.05070       -0.09984
Cl        -7.25359       -2.49318       -0.45817
C         -6.95809        0.10714        0.31271
H         -8.00982        0.29213        0.47613
S         -5.78444        1.33312        0.56780
C          3.96640       -0.53936       -0.03489
C          3.71622       -1.82530        0.67246
O          2.69677       -2.26222        1.15426
N          4.95399       -2.48015        0.67580
C          5.16672       -3.78240        1.27066
C          5.97732       -1.76497        0.03841
O          7.11730       -2.14455       -0.07666
C          5.32886       -0.50917       -0.41906
C          5.69621        0.62934       -1.05815
H          6.66677        0.91450       -1.44046
S          4.34664        1.69451       -1.19381
H         -2.03609       -0.90870       -0.23977
H         -3.08404        1.91519        0.35344
H          4.22039       -4.10581        1.70516
H          5.93239       -3.72009        2.04759
H          5.49090       -4.49733        0.51048
