33
COMP47_030001.log	Energy: -1379864.2748424
C          3.07782        0.48320       -0.04217
C          1.65048        0.75569       -0.11177
C          1.00119        1.97296       -0.28559
C          1.63840        3.23923       -0.45843
N          2.11267        4.28842       -0.59920
C         -0.41472        1.87008       -0.29869
H         -1.06231        2.72347       -0.45753
C         -0.85329        0.58445       -0.12399
S          0.47780       -0.51250        0.03710
C         -2.21445        0.07289       -0.06523
C         -3.29662        0.83983        0.14744
C         -4.66441        0.34126        0.14740
C         -5.16601       -0.82647       -0.36392
H         -4.57390       -1.55856       -0.89903
C         -6.56976       -0.96421       -0.14715
C         -7.33727       -2.08898       -0.58461
N         -7.95358       -3.00349       -0.94123
C         -7.11686        0.10509        0.51667
H         -8.15230        0.24701        0.79214
S         -5.93098        1.28061        0.88527
C          3.74969       -0.71413        0.04496
C          3.43137       -2.16799        0.09481
O          2.36717       -2.74179        0.07693
N          4.67721       -2.79643        0.17586
H          4.77056       -3.80115        0.22499
C          5.77816       -1.92889        0.18838
O          6.93589       -2.25643        0.25491
C          5.16009       -0.58045        0.10225
C          5.59700        0.70200        0.06488
H          6.61002        1.07953        0.09254
S          4.26117        1.78195       -0.04477
H         -2.33653       -1.00061       -0.19241
H         -3.16676        1.90224        0.34345
