32
COMP16_000010.log	Energy: -755082.6413176
C         -2.46699        0.64597       -0.20742
C         -1.00809        0.64746       -0.11644
C         -0.28020       -0.54170       -0.28144
C          1.10024       -0.49992       -0.20559
C          2.09377       -1.62853       -0.34829
H          1.93421       -2.40641        0.40859
H          2.01707       -2.11682       -1.32752
C          3.41912       -0.92620       -0.16619
C          4.70339       -1.44944       -0.19194
C          5.78479       -0.59117        0.00595
H          6.79544       -0.98817       -0.01174
C          5.58159        0.77206        0.22664
C          4.29445        1.30163        0.25356
C          3.21582        0.44471        0.05592
C          1.77218        0.70909        0.02982
C          1.05666        1.89122        0.19977
C         -0.32883        1.85165        0.13091
C         -3.32389        1.61478       -0.55980
C         -4.75056        1.24483       -0.47640
C         -4.98249       -0.00030       -0.06093
H         -5.91634       -0.52756        0.07375
S         -3.43230       -0.81327        0.26210
O         -3.22433       -1.89691       -0.69532
O         -3.27172       -1.07815        1.68659
H         -0.79654       -1.47606       -0.48126
H          4.86826       -2.50981       -0.36266
H          6.43553        1.42535        0.37912
H          4.13912        2.36296        0.42602
H          1.56593        2.83028        0.39549
H         -0.89894        2.76131        0.29431
H         -3.01174        2.59571       -0.90000
H         -5.53269        1.94515       -0.74679
