60
COMP91_000030.log	Energy: -1669930.9731535
C         -1.31053       -0.16494       -0.02519
C          0.17040       -0.19813       -0.06332
C          1.00507        0.46945        0.75979
H          0.67800        1.16689        1.51513
C          2.39228        0.16342        0.51289
C          3.52604        0.68953        1.16165
C          3.34165        1.68878        2.25563
O          2.28114        2.04784        2.71759
O          4.51061        2.16915        2.69825
C          4.43645        3.12232        3.75718
C          4.78822        0.24408        0.74511
S          6.35029        0.72566        1.37779
C          7.16087       -0.34190        0.27709
H          8.24177       -0.39768        0.29547
C          6.33233       -1.02786       -0.53600
H          6.65679       -1.73103       -1.28671
C          4.94312       -0.71497       -0.29492
C          3.80763       -1.23996       -0.94404
C          3.98680       -2.23975       -2.03829
O          5.04382       -2.60044       -2.50557
O          2.81396       -2.72027       -2.47277
C          2.87959       -3.67012       -3.53543
C          2.54745       -0.79168       -0.52993
S          0.98769       -1.27112       -1.16753
C         -1.94783       -1.18904        0.71840
C         -3.31190       -1.22846        0.86136
C         -3.93621       -2.32735        1.64836
O         -3.27347       -3.20686        2.16070
N         -5.32894       -2.29511        1.76611
C         -5.99082       -3.35198        2.52863
C         -6.16366       -1.32185        1.21401
O         -7.36659       -1.37740        1.37729
C         -5.51444       -0.23757        0.43064
C         -6.28628        0.75076       -0.13680
H         -7.36183        0.72166        0.00007
C         -5.67659        1.77946       -0.87658
C         -4.30970        1.80383       -1.04733
C         -3.70450        2.91085       -1.83216
O         -4.37726        3.80296       -2.31124
N         -2.32142        2.86423       -1.99563
C         -1.68072        3.90251       -2.80118
C         -1.47255        1.86477       -1.50643
O         -0.29610        1.88704       -1.80132
C         -2.08358        0.81006       -0.64184
C         -3.49374        0.79782       -0.47832
C         -4.11113       -0.22590        0.27249
H          5.46938        3.38603        3.98010
H          3.95240        2.68255        4.63202
H          3.87299        4.00195        3.43803
H          1.84465       -3.92828       -3.75548
H          3.44005       -4.55340       -3.22112
H          3.36261       -3.22938       -4.41025
H         -1.34518       -1.95688        1.19237
H         -5.22615       -4.04355        2.87392
H         -6.71286       -3.86685        1.89220
H         -6.52197       -2.91683        3.37752
H         -6.26841        2.57043       -1.32416
H         -2.43994        4.63446       -3.06519
H         -1.24898        3.46096       -3.70184
H         -0.87976        4.36942       -2.22571
