36
COMP62_400000.log	Energy: -1144149.2096970
C         -1.66536        0.58675        0.11811
C         -0.35154        0.02462        0.18112
C          0.00050       -1.25199        0.64441
O         -0.78857       -2.19147        1.13963
C          1.40978       -1.46185        0.64744
H          1.84722       -2.38026        1.01941
C          2.12284       -0.40316        0.16436
S          1.08814        0.90033       -0.31365
C          3.56212       -0.28325       -0.00024
S          4.55348       -1.69561       -0.19953
C          5.98649       -0.73703       -0.29833
H          6.95158       -1.20707       -0.43015
C          5.70342        0.59657       -0.19709
O          6.57951        1.63077       -0.23477
C          4.31419        0.85976       -0.02485
H          3.91435        1.85907        0.10035
C         -2.88400       -0.07465        0.02807
C         -3.45948       -1.36873       -0.18699
O         -2.96503       -2.50759       -0.21832
N         -4.82950       -1.11831       -0.35889
C         -5.80191       -2.16804       -0.57147
C         -5.09904        0.23777       -0.29122
H         -6.10329        0.60768       -0.44567
C         -3.93559        0.89029       -0.04460
C         -3.34232        2.21524        0.04218
O         -3.81603        3.32985        0.06600
N         -1.93743        1.95180        0.12629
C         -1.03316        3.04858        0.40954
H         -1.63763       -2.32659        0.61792
H          7.47381        1.28738       -0.34547
H         -5.26690       -3.11816       -0.53999
H         -6.28496       -2.05966       -1.54730
H         -6.56230       -2.15605        0.21479
H         -1.66242        3.91630        0.61580
H         -0.39328        3.28191       -0.44597
H         -0.41419        2.82791        1.28245
