61
COMP96_000002.log	Energy: -1101164.1243681
C         -0.37514       -0.33942       -0.46746
C          1.08521       -0.60246       -0.56132
C          1.96014       -0.11104        0.41459
C          3.30330       -0.41756        0.33717
C          4.42571        0.02726        1.26203
C          4.56246        1.55905        1.26243
C          4.21260       -0.49313        2.69281
C          5.62693       -0.63773        0.60524
C          6.95716       -0.59655        0.99450
C          7.90482       -1.28722        0.23876
H          8.95019       -1.26209        0.53207
C          7.52258       -2.00947       -0.89228
C          6.18765       -2.05255       -1.28722
C          5.24500       -1.36274       -0.53214
C          3.79314       -1.22237       -0.70247
C          2.93076       -1.72993       -1.66554
C          1.57548       -1.42156       -1.58275
C         -1.21270       -1.48211       -0.38384
C         -2.56871       -1.37840       -0.22025
C         -3.38486       -2.62098       -0.14313
O         -2.92019       -3.73542       -0.21887
N         -4.75698       -2.41061        0.03919
O         -5.54625       -3.52663       -0.01956
C         -5.73057       -4.09273        1.27900
C         -5.42944       -1.19181        0.19750
O         -6.62167       -1.15191        0.40016
C         -4.56792        0.01872        0.10886
C         -5.14699        1.26043        0.23739
H         -6.21645        1.32960        0.40338
C         -4.34973        2.41360        0.15224
C         -2.99362        2.31267       -0.06828
C         -2.20275        3.56612       -0.15685
O         -2.66830        4.67135        0.00897
N         -0.85371        3.37297       -0.45246
O         -0.15162        4.50747       -0.76031
C          0.53944        5.00109        0.38576
C         -0.16469        2.16402       -0.66449
O          0.98913        2.18928       -1.02016
C         -0.96211        0.92214       -0.41441
C         -2.36641        1.04817       -0.20318
C         -3.17522       -0.10683       -0.10442
H          1.57830        0.51597        1.21619
H          3.66271        2.02426        1.68058
H          4.70203        1.93920        0.24639
H          5.41923        1.86887        1.87121
H          3.30736       -0.05732        3.13043
H          5.06041       -0.22125        3.33136
H          4.10975       -1.58241        2.70178
H          7.26229       -0.03595        1.87468
H          8.27260       -2.54165       -1.46973
H          5.89289       -2.61356       -2.16982
H          3.29803       -2.35524       -2.47405
H          0.88987       -1.80376       -2.33415
H         -0.76679       -2.47016       -0.43493
H         -6.36071       -4.96630        1.10961
H         -6.24442       -3.38592        1.93710
H         -4.77134       -4.40382        1.70315
H         -4.78521        3.40141        0.25685
H          1.04931        5.89866        0.03443
H          1.27523        4.27049        0.73659
H         -0.16840        5.26131        1.17846
