58
COMP87_040002.log	Energy: -1528314.0377213
C          0.46786        0.30762        0.29700
C          1.92052        0.37612        0.46086
C          2.63848        1.19341        1.30714
O          2.12871        2.09120        2.18534
C          4.04331        1.00371        1.23445
H          4.73647        1.54967        1.86253
C          4.40419        0.04108        0.32790
S          3.00388       -0.65064       -0.43254
C          5.72681       -0.42902       -0.04931
C          6.87338        0.20675        0.24830
C          8.20115       -0.28104       -0.08552
C          8.59469       -1.51714       -0.53510
H          7.91073       -2.34808       -0.67608
C          9.99738       -1.60021       -0.77016
O         10.64875       -2.70680       -1.21374
C         10.65756       -0.43585       -0.49255
H         11.71692       -0.24795       -0.58429
S          9.56829        0.77792        0.05861
C         -0.18758       -0.91373        0.09082
C         -1.56954       -0.99547       -0.05340
C         -2.34864        0.16069        0.02419
C         -3.78327        0.47829       -0.13047
C         -3.86071        1.99993       -0.10505
O         -4.79249        2.75934       -0.27059
N         -2.57972        2.41560        0.17666
O         -2.21627        3.72537        0.26492
C         -2.08445        4.30384       -1.03923
C         -1.66204        1.37754        0.20159
C         -0.29536        1.48946        0.34176
C         -4.88885       -0.31527       -0.19976
C         -4.84237       -1.81342        0.07365
O         -3.90829       -2.57026        0.23497
N         -6.16094       -2.19861        0.18213
O         -6.52330       -3.51718        0.15703
C         -6.54168       -4.04881        1.48287
C         -7.04186       -1.20050       -0.22011
C         -8.40466       -1.31943       -0.40195
C         -9.08919       -0.18028       -0.82442
H        -10.16236       -0.23222       -0.98152
C         -8.40972        1.01269       -1.05456
C         -7.03078        1.10775       -0.86648
C         -6.31706       -0.01121       -0.43238
H          1.17480        1.95114        2.26380
H          5.76394       -1.35567       -0.61878
H          6.82848        1.16265        0.76652
H         10.00802       -3.41220       -1.35633
H          0.39456       -1.82956        0.06079
H         -2.03986       -1.95409       -0.20713
H         -1.72052        5.31628       -0.86123
H         -3.05526        4.33484       -1.54021
H         -1.35791        3.74273       -1.63687
H          0.16693        2.46811        0.41804
H         -6.88565       -5.07755        1.36672
H         -7.23717       -3.48649        2.11496
H         -5.53725       -4.03489        1.91404
H         -8.90303       -2.26773       -0.23789
H         -8.95598        1.88815       -1.39014
H         -6.51813        2.03901       -1.04938
