50
COMP91_200012.log	Energy: -2055090.9603875
C          0.75475       -0.10769       -0.11780
C         -0.72433       -0.16112       -0.09121
C         -1.51390       -0.39111        0.98089
Cl        -0.90405       -0.55783        2.59373
C         -2.92233       -0.46589        0.67837
C         -3.99200       -0.68071        1.54358
H         -3.82453       -0.81302        2.60735
C         -5.26466       -0.71820        0.99274
S         -6.76672       -0.97215        1.85667
C         -7.67812       -0.85282        0.37944
H         -8.75440       -0.95435        0.39273
C         -6.89655       -0.63265       -0.69862
Cl        -7.50706       -0.46556       -2.31253
C         -5.48749       -0.54634       -0.39578
C         -4.41614       -0.33033       -1.26103
H         -4.58367       -0.19658       -2.32463
C         -3.14542       -0.29204       -0.70956
S         -1.64425       -0.04718       -1.57560
C          1.42709       -1.34625       -0.24426
C          2.79649       -1.41343       -0.27747
C          3.45198       -2.74357       -0.41360
O          2.84353       -3.78671       -0.47599
N          4.85083       -2.70606       -0.45302
O          5.47492       -3.89707       -0.70509
C          5.78005       -4.58130        0.51215
C          5.68841       -1.58796       -0.34875
O          6.89287       -1.69819       -0.35733
C          4.98286       -0.28388       -0.21509
C          5.72428        0.87082       -0.12019
H          6.80654        0.80379       -0.14634
C          5.07727        2.11246        0.00877
C          3.70291        2.18360        0.04379
C          3.06656        3.51854        0.19062
O          3.68664        4.55574        0.25435
N          1.67170        3.49245        0.23628
O          1.06086        4.68696        0.50387
C          0.74080        5.37978       -0.70444
C          0.81262        2.38809        0.12710
O         -0.38528        2.54344        0.14369
C          1.49159        1.06420       -0.02254
C          2.91205        1.01090       -0.05260
C          3.56853       -0.23358       -0.18442
H          0.85156       -2.26332       -0.31501
H          6.28313       -5.49467        0.19395
H          4.86198       -4.83036        1.05224
H          6.45386       -3.98164        1.13110
H          5.64590        3.03289        0.08523
H          0.25082        6.29538       -0.37252
H          0.05133        4.78940       -1.31480
H          1.65187        5.62437       -1.25845
