52
COMP61_400032.log	Energy: -1572152.6928431
C          2.31387        0.99376       -0.11955
C          0.93030        0.67163       -0.08239
C          0.38255       -0.60269       -0.21350
O          0.97857       -1.73263       -0.52089
C         -1.06140       -0.59348       -0.11717
C         -1.91197       -1.70172       -0.18616
C         -1.41204       -3.11733       -0.20745
O         -1.66955       -3.91138       -1.07933
O         -0.72632       -3.39506        0.90120
C         -0.11983       -4.68754        0.93448
C         -3.27973       -1.46393       -0.17996
S         -4.52649       -2.68594       -0.27190
C         -5.75185       -1.46677       -0.06815
H         -6.79358       -1.75816       -0.02678
C         -5.26183       -0.20748        0.03433
O         -5.96522        0.92355        0.26448
C         -3.81749       -0.15679       -0.05968
C         -2.96048        0.95166        0.01263
C         -3.46541        2.35838       -0.07584
O         -4.23693        2.76033       -0.90802
O         -2.88259        3.13959        0.84853
C         -3.21245        4.52663        0.76618
C         -1.58593        0.70823        0.01466
S         -0.32446        1.91204        0.10044
C          3.44680        0.17889       -0.05813
C          3.85066       -1.14472        0.29766
O          3.22892       -2.19057        0.55268
N          5.24973       -1.05956        0.28703
O          6.06415       -2.09400        0.63646
C          6.16787       -3.03847       -0.43456
C          5.71811        0.21241        0.03172
H          6.77722        0.41978        0.05967
C          4.62627        0.98857       -0.19182
C          4.22403        2.37468       -0.36751
O          4.81334        3.40903       -0.56537
N          2.79833        2.28982       -0.21722
O          2.01229        3.33660       -0.60807
C          1.96514        4.34456        0.41003
H          1.87314       -1.91372       -0.07148
H          0.36136       -4.75925        1.90871
H          0.62247       -4.76827        0.13670
H         -0.87311       -5.46929        0.81399
H         -6.90730        0.71709        0.27506
H         -2.65868        5.00646        1.57228
H         -4.28700        4.66963        0.89972
H         -2.91480        4.93395       -0.20308
H          6.86432       -3.79479       -0.07112
H          6.56801       -2.55774       -1.33371
H          5.19363       -3.48937       -0.63887
H          1.26283        5.08586        0.02717
H          2.95308        4.78958        0.54428
H          1.59270        3.92427        1.34975
