37
COMP21_200020.log	Energy: -1924192.6844887
C          2.91253       -0.89772       -0.49388
C          1.47331       -0.61474       -0.37221
C          0.82343        0.55307       -0.61020
Cl         1.64073        1.95170       -1.22311
C         -0.60499        0.49136       -0.38444
C         -1.60134        1.46971       -0.49468
O         -1.35083        2.75885       -0.85963
C         -0.97622        3.60531        0.22524
C         -2.91341        1.09101       -0.23308
S         -4.27763        2.17731       -0.33535
C         -5.35010        0.90349        0.15756
H         -6.40921        1.09223        0.26570
C         -4.72217       -0.27301        0.37488
Cl        -5.58575       -1.68543        0.89493
C         -3.29198       -0.21875        0.15065
C         -2.29514       -1.19566        0.26526
O         -2.54926       -2.48002        0.64772
C         -2.86645       -3.35627       -0.42998
C         -0.98343       -0.81664        0.00411
S          0.38551       -1.88943        0.13465
C          3.86764       -0.19744        0.31560
N          3.59345        0.72584        1.23694
S          5.02283        1.19238        1.85449
N          6.03787        0.25238        0.99977
C          5.27411       -0.47581        0.18226
C          5.73185       -1.45914       -0.74141
H          6.79376       -1.65640       -0.83337
C          4.79722       -2.12353       -1.47849
H          5.10869       -2.88106       -2.19046
C          3.39938       -1.84641       -1.35321
H          2.70309       -2.39850       -1.97750
H         -0.81603        4.59416       -0.20555
H         -0.05016        3.25581        0.69400
H         -1.77469        3.65194        0.97537
H         -3.01121       -4.34161        0.01423
H         -2.04646       -3.39502       -1.15724
H         -3.78815       -3.04323       -0.93240
