44
COMP67_430002.log	Energy: -1402698.5196899
C          2.77858       -0.48109        0.08056
C          1.42576       -0.93711       -0.14052
C          0.93327       -2.16281       -0.56455
C          1.65293       -3.31653       -0.98064
N          2.07659       -4.31805       -1.38720
C         -0.48931       -2.18174       -0.66287
O         -1.22306       -3.23738       -1.05982
C         -1.07343       -0.98255       -0.31618
S          0.13290        0.17242        0.12980
C         -2.49470       -0.71037       -0.32967
C         -3.06341        0.50265       -0.17566
C         -4.49744        0.72582       -0.10955
C         -5.45667       -0.08773        0.44903
O         -5.26299       -1.26588        1.07058
C         -6.77843        0.45833        0.35213
C         -7.94435       -0.19032        0.85858
N         -8.89828       -0.70580        1.26767
C         -6.79192        1.67913       -0.26939
H         -7.65812        2.29333       -0.47088
S         -5.22625        2.18194       -0.73348
C          3.26438        0.80283        0.04298
C          2.90467        2.15722       -0.37100
O          1.87381        2.69411       -0.71928
N          4.15071        2.83496       -0.22393
O          4.33381        4.13731       -0.57670
C          3.80911        5.01543        0.42545
C          5.17182        2.02514        0.20598
H          6.16789        2.42599        0.32996
C          4.65927        0.77900        0.38634
C          5.03572       -0.58025        0.73187
O          6.03710       -1.08215        1.18431
N          3.84438       -1.31799        0.39542
O          3.60629       -2.54692        0.96234
C          4.49217       -3.54833        0.43521
H         -0.64635       -3.98519       -1.27433
H         -3.11351       -1.58268       -0.53197
H         -2.42904        1.38476       -0.08662
H         -4.31581       -1.38197        1.23664
H          4.01301        6.01827        0.04906
H          4.32107        4.85890        1.38134
H          2.73239        4.86629        0.53609
H          4.04020       -4.49534        0.72945
H          5.48461       -3.43208        0.87082
H          4.53556       -3.48502       -0.65449
