41
COMP21_100130.log	Energy: -1738635.2914357
C          2.77118        0.25873        0.14961
C          1.31805        0.09804        0.10507
C          0.41797        1.07229       -0.17485
F          0.78972        2.29148       -0.55710
C         -0.96147        0.66674       -0.12109
C         -2.12982        1.41582       -0.32598
C         -2.16737        2.90340       -0.44718
O         -2.93148        3.49676       -1.17490
O         -1.32896        3.49423        0.40172
C         -1.28031        4.91990        0.33060
C         -3.34167        0.72928       -0.36132
S         -4.90697        1.42632       -0.71799
C         -5.67290       -0.11421       -0.47092
H         -6.73637       -0.23476       -0.62097
C         -4.80169       -1.09031       -0.14987
F         -5.15922       -2.36299       -0.00044
C         -3.42989       -0.65234       -0.05278
C         -2.27390       -1.37723        0.26534
C         -2.36152       -2.76395        0.82023
O         -3.16736       -3.12048        1.64184
O         -1.39101       -3.54839        0.33054
C         -1.32921       -4.86479        0.88468
C         -1.04552       -0.72029        0.16365
S          0.53141       -1.44098        0.39246
C          3.68236       -0.69663       -0.42241
N          3.33627       -1.81832       -1.04697
S          4.72059       -2.54061       -1.50786
N          5.80637       -1.46943       -0.94031
C          5.10910       -0.49502       -0.36064
C          5.65825        0.65932        0.26868
H          6.72679        0.82539        0.31796
C          4.77528        1.53662        0.80302
F          5.18664        2.64250        1.41849
C          3.35456        1.33682        0.75660
F          2.62522        2.26844        1.36007
H         -0.55006        5.22233        1.07943
H         -2.26120        5.34712        0.55035
H         -0.96329        5.23877       -0.66513
H         -0.47916       -5.34350        0.40102
H         -2.25311       -5.40659        0.67117
H         -1.18236       -4.81539        1.96602
