52
COMP92_020003.log	Energy: -2149539.4794591
C          0.25869       -0.12498        0.29832
C         -1.16402       -0.49938        0.45988
C         -1.74453       -1.04619        1.56535
H         -1.23369       -1.20616        2.50653
C         -3.11929       -1.34483        1.35371
Cl        -4.12123       -1.99722        2.60377
C         -3.56926       -1.05609        0.09427
S         -2.27716       -0.39449       -0.85913
C         -4.90086       -1.25236       -0.46881
S         -5.92642        0.09243       -0.86750
C         -7.18266       -0.94819       -1.41254
H         -8.10547       -0.53311       -1.79363
C         -6.85043       -2.26293       -1.29356
H         -7.49054       -3.08887       -1.57579
C         -5.54218       -2.42802       -0.75638
Cl        -4.82996       -3.98861       -0.52293
C          1.18436       -1.19332        0.20704
C          2.52306       -0.96633        0.01547
C          3.45192       -2.12356       -0.07527
O          3.10315       -3.27771        0.04077
N          4.79098       -1.80278       -0.31234
C          5.70866       -2.92028       -0.46304
O          5.95830       -3.42031       -1.51933
O          6.18428       -3.25600        0.72152
C          7.10524       -4.35385        0.71011
C          5.34599       -0.52503       -0.43190
O          6.53693       -0.38412       -0.60426
C          4.38777        0.60623       -0.33145
C          4.85255        1.89507       -0.45534
H          5.91056        2.06038       -0.62688
C          3.95659        2.97404       -0.36036
C          2.61670        2.75110       -0.13689
C          1.70798        3.91901       -0.03939
O          2.06311        5.06816       -0.18786
N          0.37971        3.61230        0.24986
C         -0.51335        4.73813        0.47318
O         -0.60691        5.29762        1.52493
O         -1.16148        5.00769       -0.64478
C         -2.10648        6.08001       -0.54592
C         -0.19287        2.34504        0.40999
O         -1.36303        2.25857        0.70878
C          0.72332        1.18252        0.21335
C          2.10666        1.43387       -0.00668
C          3.01256        0.35394       -0.10926
H          0.82542       -2.21467        0.28010
H          7.36811       -4.51995        1.75319
H          7.98851       -4.09294        0.12331
H          6.62787       -5.23836        0.28384
H          4.30387        3.99670       -0.46039
H         -2.55685        6.16078       -1.53359
H         -1.59516        7.00614       -0.27564
H         -2.86120        5.84272        0.20662
