56
COMP87_240000.log	Energy: -2010810.2697431
C         -0.46504        0.47861        0.16903
C          0.98623        0.65870        0.26884
C          1.65457        1.76728        0.72670
O          1.10593        2.90915        1.19497
C          3.07241        1.61434        0.70489
Cl         4.08587        2.89715        1.26893
C          3.49590        0.39187        0.23866
S          2.11384       -0.58145       -0.17543
C          4.80245       -0.21186        0.04000
C          5.99915        0.39017        0.17725
C          7.30160       -0.22260       -0.02550
C          7.71914       -1.41530       -0.56602
Cl         6.69922       -2.64887       -1.24882
C          9.13818       -1.60421       -0.56983
O          9.76776       -2.69490       -1.05312
C          9.79480       -0.54002       -0.02694
H         10.86167       -0.42727        0.09387
S          8.69639        0.68151        0.48344
C         -1.07479       -0.73163        0.51565
C         -2.45499       -0.90080        0.44794
C         -3.27008        0.15604        0.04203
C         -4.71333        0.33183       -0.20500
C         -4.83737        1.73356       -0.77974
O         -5.82525        2.34835       -1.13314
N         -3.56926        2.27266       -0.79493
C         -3.27505        3.60617       -1.25764
C         -2.63469        1.35710       -0.33634
C         -1.26595        1.54433       -0.28004
C         -5.78672       -0.47425        0.03232
C         -5.69966       -1.73886        0.87622
O         -4.73920       -2.23294        1.43785
N         -6.97099       -2.25054        0.96097
C         -7.30238       -3.44541        1.69596
C         -7.86888       -1.48045        0.23059
C         -9.21668       -1.73645        0.05267
C         -9.94098       -0.85917       -0.75444
H        -11.00122       -1.03228       -0.91249
C         -9.31515        0.22489       -1.36076
C         -7.95617        0.47280       -1.16662
C         -7.20873       -0.37631       -0.34913
H          0.16035        2.76064        1.33799
H          4.76975       -1.25732       -0.24818
H          6.03517        1.43222        0.47551
H          9.10711       -3.31925       -1.38415
H         -0.46160       -1.55393        0.87122
H         -2.89634       -1.84130        0.73781
H         -4.21936        4.07147       -1.54135
H         -2.60723        3.57751       -2.12538
H         -2.80440        4.19416       -0.46244
H         -0.81479        2.46342       -0.64202
H         -6.38626       -3.81000        2.16148
H         -7.70088       -4.21339        1.02406
H         -8.04407       -3.22668        2.47129
H         -9.69121       -2.59376        0.51863
H         -9.88901        0.89458       -1.99296
H         -7.48693        1.32494       -1.63239
