46
COMP97_410001.log	Energy: -1554303.6678117
C         -1.52982       -0.13353        0.20838
C         -0.13801       -0.55218        0.42114
C          0.35182       -1.52846        1.22955
F         -0.39267       -2.36625        1.95789
C          1.76744       -1.62201        1.27586
O          2.44015       -2.52401        2.02357
C          2.37961       -0.68086        0.48686
S          1.18662        0.31960       -0.29744
C          3.80716       -0.53507        0.30003
C          4.40823        0.32744       -0.54397
C          5.84647        0.49741       -0.65373
C          6.78791        0.39568        0.34179
O          6.58295        0.12871        1.65004
C          8.10757        0.65676       -0.13694
F          9.15896        0.60597        0.67868
C          8.17046        0.95790       -1.45739
H          9.05290        1.18446       -2.03682
S          6.59836        0.93786       -2.16720
C         -1.81206        1.24153        0.42214
C         -3.07962        1.74335        0.30936
C         -3.31506        3.19169        0.56265
O         -2.43725        3.97603        0.85279
N         -4.63576        3.60204        0.44248
H         -4.81083        4.58601        0.61200
C         -5.74988        2.83510        0.12145
O         -6.85235        3.33505        0.05283
C         -5.48024        1.39236       -0.12550
C         -6.52380        0.55817       -0.45361
H         -7.52470        0.96974       -0.52586
C         -6.27760       -0.80330       -0.69358
C         -5.00075       -1.31087       -0.60239
C         -4.78898       -2.75244       -0.88212
O         -5.67810       -3.52969       -1.16080
N         -3.46907       -3.16209       -0.81647
H         -3.29343       -4.13274       -1.04968
C         -2.33081       -2.41811       -0.52087
O         -1.24469       -2.95110       -0.59235
C         -2.56976       -0.98710       -0.15677
C         -3.90080       -0.47962       -0.25989
C         -4.15940        0.89069       -0.02319
H          1.80362       -3.13260        2.42140
H          4.40553       -1.23400        0.88162
H          3.79619        0.95722       -1.19013
H          5.63716        0.22103        1.83636
H         -1.01153        1.91659        0.70780
H         -7.08355       -1.47955       -0.95789
