37
COMP59_000400.log	Energy: -1573376.3363578
C         -0.87103       -0.43418        0.20356
C          0.56215       -0.20044        0.14398
C          1.26593        0.91199        0.53979
C          2.65752        0.78111        0.31688
C          3.00045       -0.42893       -0.23758
S          1.63233       -1.42171       -0.54052
C          4.43768       -0.48532       -0.39218
C          4.97554        0.69457        0.06298
C          3.89169        1.63363        0.56900
C          3.85156        2.93492       -0.24914
C          4.06759        1.93724        2.06587
C          6.38964        0.73360       -0.05812
C          6.88191       -0.42060       -0.60088
H          7.91388       -0.66979       -0.80637
S          5.63547       -1.57126       -0.97416
C         -1.53950       -1.54713        0.66970
O         -0.99433       -2.66751        1.17561
N         -2.89519       -1.50272        0.62077
C         -3.29397       -0.36344        0.12530
S         -2.03966        0.73852       -0.33110
C         -4.69581       -0.01695       -0.03923
S         -5.95031       -1.12345        0.41439
C         -7.10576        0.04957       -0.10069
H         -8.16858       -0.13465       -0.03481
C         -6.45850        1.16333       -0.56546
O         -7.00580        2.29500       -1.05369
N         -5.09886        1.12225       -0.52987
H          0.78332        1.77151        0.99220
H          3.71754        2.72232       -1.31361
H          4.78531        3.49325       -0.12165
H          3.02540        3.57266        0.08386
H          4.09213        1.01252        2.64971
H          3.24239        2.55796        2.43171
H          5.00351        2.47990        2.23749
H          7.01933        1.56472        0.23819
H         -0.03635       -2.55093        1.24765
H         -7.96636        2.21247       -1.03653
