35
COMP59_000000.log	Energy: -1479004.8693433
C         -1.21205       -0.43006        0.15795
C          0.22396       -0.22865        0.11059
C          0.92868        0.94696        0.23164
C          2.32541        0.74662        0.14032
C          2.66350       -0.57320       -0.04830
S          1.29010       -1.59904       -0.13234
C          4.10365       -0.68220       -0.12231
C          4.64860        0.57172        0.01992
C          3.56619        1.62358        0.20635
C          3.58641        2.65632       -0.93207
C          3.69131        2.31641        1.57331
C          6.06662        0.56277       -0.04321
C          6.55584       -0.69996       -0.23152
H          7.58943       -1.00573       -0.31850
S          5.30098       -1.89624       -0.33568
C         -1.91091       -1.55517        0.51767
H         -1.45452       -2.48032        0.85016
N         -3.27071       -1.46615        0.46355
C         -3.63824       -0.27981        0.07017
S         -2.33673        0.81892       -0.28386
C         -5.02516        0.13128       -0.07406
S         -6.32762       -0.96904        0.27069
C         -7.43449        0.28273       -0.14644
H         -8.50334        0.12862       -0.10578
C         -6.75692        1.40919       -0.50548
H         -7.21606        2.34065       -0.81242
N         -5.39132        1.31997       -0.46370
H          0.44698        1.90462        0.39802
H          3.48925        2.16548       -1.90467
H          4.52625        3.21916       -0.92014
H          2.76234        3.36946       -0.81950
H          3.67026        1.58229        2.38381
H          2.86791        3.02341        1.72297
H          4.63273        2.87327        1.63484
H          6.70090        1.43750        0.04413
