52
COMP82_100002.log	Energy: -1509895.0861504
C         -1.26995        0.49600       -0.18363
C         -2.73211        0.58907       -0.20767
C         -3.53328        1.66330       -0.49226
F         -3.05767        2.87053       -0.81922
C         -4.92689        1.42988       -0.42266
H         -5.67060        2.19681       -0.60060
C         -5.20459        0.13558       -0.07514
S         -3.74693       -0.77927        0.15245
C         -6.50473       -0.49027        0.10594
S         -7.88784        0.07190       -0.78607
C         -8.92190       -1.08828       -0.03965
H         -9.97497       -1.14591       -0.27089
C         -8.21336       -1.86141        0.82581
F         -8.75336       -2.84624        1.54585
C         -6.83514       -1.53671        0.92465
H         -6.14574       -2.04101        1.59058
C         -0.62634       -0.74033       -0.32935
C          0.75890       -0.86131       -0.29343
C          1.55263        0.27325       -0.11736
C          2.99921        0.53739        0.05032
C          3.09229        2.02695        0.36099
O          4.03876        2.73347        0.63752
N          1.81138        2.50798        0.20888
O          1.45044        3.75371        0.63568
C          1.66213        4.71362       -0.40230
C          0.87551        1.49992        0.02530
C         -0.49274        1.65015        0.00078
C          4.09003       -0.27445       -0.04842
C          3.99786       -1.71028       -0.55120
O          3.06361       -2.33846       -1.00567
N          5.26328       -2.22511       -0.41110
O          5.63637       -3.41116       -0.97552
C          5.31976       -4.49658       -0.10167
C          6.19503       -1.27578       -0.01086
C          7.55247       -1.46471        0.14847
C          8.29602       -0.37432        0.59977
H          9.36800       -0.48032        0.73600
C          7.67479        0.83874        0.87908
C          6.30009        1.00633        0.70653
C          5.52797       -0.05932        0.23927
H         -1.21418       -1.63816       -0.49474
H          1.21605       -1.82962       -0.42065
H          1.29073        5.65387        0.00755
H          1.09553        4.44329       -1.29964
H          2.72781        4.79747       -0.63077
H         -0.93810        2.62488        0.14666
H          5.70414       -5.38417       -0.60602
H          4.23742       -4.57837        0.02860
H          5.81439       -4.36926        0.86722
H          8.00695       -2.42215       -0.07853
H          8.26459        1.67704        1.23540
H          5.83543        1.95574        0.91994
