27
COMP22_010000.log	Energy: -1280416.2843298
C          1.96906        0.69986        0.14288
C          0.62318        0.12540        0.13120
C          0.24976       -1.18532        0.27211
H          0.94049       -2.00704        0.39461
C         -1.15319       -1.33459        0.23151
F         -1.73850       -2.53265        0.35558
C         -1.87394       -0.18313        0.05909
S         -0.77015        1.15597       -0.06757
C         -3.31060       -0.02960       -0.02473
S         -4.41631       -1.37096        0.10065
C         -5.78529       -0.34250       -0.09026
H         -6.77942       -0.76682       -0.07894
C         -5.43884        0.96512       -0.24418
H         -6.13102        1.78574       -0.37979
C         -4.03102        1.12201       -0.20383
F         -3.44869        2.32129       -0.33243
C          3.14307       -0.12049       -0.02101
N          3.17160       -1.44289       -0.19049
S          4.73618       -1.86670       -0.32425
N          5.44279       -0.41149       -0.17711
C          4.45843        0.47440       -0.01465
C          4.62494        1.87800        0.15171
H          5.61989        2.30737        0.15335
C          3.49782        2.62782        0.30717
H          3.57756        3.70169        0.44288
C          2.19492        2.04572        0.30824
H          1.35119        2.71295        0.45991
