37
COMP21_200120.log	Energy: -2048694.9798135
C         -2.72239       -0.41285       -0.33350
C         -1.25846       -0.28689       -0.27300
C         -0.53328        0.85936       -0.30078
Cl        -1.28303        2.41167       -0.45770
C          0.89494        0.65378       -0.19520
C          1.96250        1.56085       -0.19485
O          1.79453        2.90912       -0.29990
C          1.78538        3.39330       -1.64083
C          3.24674        1.04758       -0.05050
S          4.68929        2.03186       -0.00211
C          5.67487        0.61072        0.15380
H          6.75056        0.69854        0.21839
C          4.96201       -0.53668        0.18342
Cl         5.73128       -2.08618        0.31387
C          3.53121       -0.33437        0.07776
C          2.46390       -1.24072        0.07557
O          2.63039       -2.58969        0.17816
C          2.65233       -3.07422        1.51893
C          1.17982       -0.72715       -0.06761
S         -0.25777       -1.71185       -0.11426
C         -3.56115        0.02643        0.74580
N         -3.13784        0.56372        1.88547
S         -4.47007        0.89060        2.76056
N         -5.62585        0.36115        1.74300
C         -4.99442       -0.09427        0.66299
C         -5.61206       -0.66645       -0.48789
H         -6.68735       -0.76728       -0.56361
C         -4.79041       -1.08234       -1.48165
F         -5.27179       -1.63016       -2.59503
C         -3.36146       -0.95788       -1.40671
F         -2.67964       -1.39767       -2.45946
H          1.64549        4.47238       -1.57035
H          0.95911        2.95388       -2.20987
H          2.73580        3.17499       -2.14208
H          2.78379       -4.15423        1.44663
H          1.70959       -2.84898        2.03154
H          3.48853       -2.64068        2.07779
