31
COMP47_110001.log	Energy: -1513144.2622969
C          3.15438        0.57706       -0.00045
C          1.71913        0.75735        0.00068
C          1.03752        1.94809        0.00123
F          1.62587        3.14326        0.00052
C         -0.36630        1.81638        0.00201
F         -1.16260        2.88705        0.00269
C         -0.79395        0.51503        0.00202
S          0.57479       -0.55823        0.00126
C         -2.13379       -0.03852        0.00269
C         -3.26344        0.69617       -0.00072
C         -4.60664        0.15032       -0.00056
C         -5.04544       -1.14643       -0.00096
F         -4.24939       -2.21644       -0.00140
C         -6.46037       -1.27828       -0.00120
F         -7.04827       -2.47067       -0.00165
C         -7.10969       -0.08588       -0.00112
H         -8.17578        0.08446       -0.00116
S         -5.98338        1.21852        0.00000
C          3.91358       -0.56548       -0.00189
C          3.68977       -2.03097        0.00149
O          2.66153       -2.66839        0.00095
N          4.97763       -2.57942        0.00527
H          5.14066       -3.57631        0.00118
C          6.01943       -1.64093       -0.00046
O          7.19799       -1.89519       -0.00188
C          5.31363       -0.33244       -0.00285
C          5.65521        0.97850       -0.00240
H          6.63828        1.42867       -0.00325
S          4.23622        1.96232       -0.00219
H         -2.19950       -1.12203        0.00610
H         -3.19434        1.77956       -0.00401
