31
COMP42_110002.log	Energy: -1536391.9503110
C         -1.69949        1.25453       -0.03314
C         -0.25326        1.19930       -0.00574
C          0.60764        2.26234        0.06553
F          0.22420        3.53630        0.12104
C          1.97094        1.90103        0.07635
F          2.94078        2.81322        0.14198
C          2.17951        0.55136        0.01350
S          0.65566       -0.29086       -0.06089
C          3.44868       -0.14404        0.00504
S          4.98215        0.68538        0.08056
C          5.86846       -0.79298        0.02419
H          6.94803       -0.79986        0.04735
C          5.03551       -1.86084       -0.04833
F          5.41515       -3.13290       -0.10502
C          3.66299       -1.49298       -0.05902
F          2.69104       -2.40000       -0.12523
C         -2.63282        0.25220       -0.09674
C         -2.64294       -1.22806       -0.15363
O         -1.74340       -2.03328       -0.16828
N         -4.01218       -1.54587       -0.16439
O         -4.44659       -2.81860       -0.35722
C         -4.64550       -3.47749        0.89653
C         -4.89751       -0.45220       -0.15710
O         -6.09917       -0.51778       -0.17338
C         -3.97788        0.71253       -0.10137
C         -4.10015        2.05951       -0.04368
H         -4.99817        2.66174       -0.03345
S         -2.53982        2.79791        0.01609
H         -5.00470       -4.47305        0.63412
H         -5.39968       -2.95151        1.48958
H         -3.70054       -3.55240        1.44288
