42
COMP84_400001.log	Energy: -1287589.3194613
C          1.47377        0.06886        0.09588
C          2.93921        0.06747        0.04039
C          3.73582       -0.93070       -0.46475
O          3.33644       -2.09652       -1.02612
C          5.11950       -0.60793       -0.37620
S          6.58768       -1.40552       -0.82541
C          7.51547       -0.04769       -0.23815
H          8.59528       -0.06925       -0.30199
C          6.73791        0.95291        0.26746
O          7.12852        2.13614        0.79870
C          5.35044        0.62815        0.18452
S          3.88406        1.43373        0.61937
C          0.72921        1.20905       -0.22985
C         -0.66156        1.21160       -0.19688
C         -1.35849        0.05426        0.16031
C         -2.78205       -0.33468        0.25107
C         -2.75497       -1.79277        0.69455
O         -3.66308       -2.55081        0.96874
N         -1.42955       -2.13988        0.79399
H         -1.14530       -3.04923        1.12260
C         -0.58930       -1.08422        0.47991
C          0.79237       -1.10390        0.46494
C         -3.93928        0.35272        0.02779
C         -3.97966        1.86100       -0.19512
O         -3.08335        2.68161       -0.18795
N         -5.29907        2.18640       -0.37498
H         -5.59303        3.13946       -0.51852
C         -6.12776        1.07499       -0.30866
C         -7.49939        1.04743       -0.48376
C         -8.13598       -0.18993       -0.40622
H         -9.21237       -0.24601       -0.53772
C         -7.40224       -1.34799       -0.16825
C         -6.02022       -1.30218        0.00955
C         -5.35343       -0.07595       -0.04904
H          2.38279       -2.05349       -1.18526
H          8.09094        2.19358        0.77695
H          1.24853        2.11316       -0.53195
H         -1.20282        2.11097       -0.44415
H          1.33699       -1.98772        0.78533
H         -8.05505        1.95909       -0.67966
H         -7.90834       -2.30625       -0.11347
H         -5.46962       -2.20784        0.20746
