31
COMP21_100310.log	Energy: -1443952.7077614
C         -2.06837        0.05296       -0.08447
C         -0.60875       -0.04792       -0.09940
C          0.26181        0.74255        0.57699
F         -0.11052        1.71716        1.40255
C          1.64883        0.44982        0.37008
C          2.75677        1.09106        0.92256
H          2.62999        1.92419        1.60542
C          4.00671        0.61861        0.55629
S          5.56187        1.22801        1.08757
C          6.39882        0.03871        0.12324
H          7.47842       -0.00371        0.10939
C          5.54724       -0.75758       -0.55124
F          5.92095       -1.74953       -1.36224
C          4.15393       -0.46940       -0.34041
C          3.04564       -1.10997       -0.89046
H          3.17103       -1.94076       -1.57641
C          1.79405       -0.63745       -0.52394
S          0.24577       -1.25825       -1.05072
C         -2.88812       -1.09299        0.18925
N         -2.44196       -2.32522        0.43292
S         -3.75331       -3.24659        0.68904
N         -4.92976       -2.14250        0.51234
C         -4.31990       -0.98779        0.23875
C         -4.96218        0.25958        0.02094
H         -6.04140        0.33874        0.06958
C         -4.17393        1.34345       -0.24896
C         -4.79922        2.61616       -0.47899
N         -5.32900        3.63033       -0.65846
C         -2.73000        1.24273       -0.31735
C         -1.99442        2.42094       -0.67609
N         -1.41564        3.37476       -0.98758
