32
COMP72_010001.log	Energy: -1651582.7120492
C          0.68615        0.92698       -0.36283
C         -0.59609        0.23614       -0.36020
C         -0.92317       -1.00319       -0.84278
H         -0.21577       -1.70290       -1.25965
C         -2.30220       -1.26174       -0.70775
F         -2.84604       -2.41469       -1.11507
C         -3.04946       -0.26410       -0.13722
S         -2.00258        1.06270        0.26566
C         -4.47036       -0.25570        0.13630
S         -5.52003       -1.59651       -0.23372
C         -6.89958       -0.76440        0.37621
H         -7.86778       -1.24460        0.35331
C         -6.59746        0.47794        0.84474
H         -7.30403        1.17793        1.27082
C         -5.21449        0.74735        0.69983
F         -4.67369        1.90833        1.08965
C          1.98856        0.47350       -0.23219
C          2.43501       -0.92809       -0.03357
O          1.69807       -1.89940       -0.06498
C          3.89284       -1.08652        0.19986
C          4.49544       -2.28735        0.44440
H          4.01406       -3.25285        0.51596
S          6.19317       -2.10893        0.63922
C          6.11440       -0.41131        0.38733
H          6.99945        0.20963        0.41100
C          4.83042       -0.00344        0.16657
C          4.40948        1.38955       -0.08283
O          5.18617        2.32640       -0.12823
C          2.94360        1.55474       -0.25604
C          2.36890        2.77886       -0.41447
H          2.88125        3.73014       -0.45668
S          0.66846        2.66202       -0.54695
