33
COMP68_000000.log	Energy: -846476.3202104
C          0.44960        0.39537       -0.27806
C         -0.80034       -0.32944       -0.38533
C         -2.03693       -0.02382        0.13342
O         -2.31178        1.07452        0.87947
C         -3.54227        0.96131        1.59132
C         -4.63203        0.41204        0.68770
O         -4.31332       -0.90791        0.26753
C         -3.02528       -1.01434       -0.15598
C         -2.52618       -2.06253       -0.86885
H         -3.06777       -2.93196       -1.21182
S         -0.85055       -1.86844       -1.19336
C          1.70843       -0.09380       -0.04506
C          2.43658       -1.30317        0.31160
O          2.11788       -2.47162        0.42876
N          3.76756       -0.82516        0.51436
C          4.85935       -1.70583        0.85903
C          3.84982        0.53494        0.31162
H          4.79165        1.05159        0.44449
C          2.62579        1.00788       -0.03613
C          1.88259        2.22899       -0.31455
O          2.21713        3.38812       -0.45140
N          0.53610        1.77276       -0.44218
C         -0.50203        2.65542       -0.93184
H         -3.78580        1.96735        1.93686
H         -3.40338        0.30250        2.45729
H         -4.75523        1.06391       -0.18747
H         -5.58179        0.34411        1.22126
H          4.43594       -2.70627        0.96614
H          5.32092       -1.40719        1.80547
H          5.62057       -1.72005        0.07246
H         -0.00826        3.57889       -1.23880
H         -1.23707        2.87243       -0.15538
H         -1.00847        2.20363       -1.79016
