34
COMP67_410001.log	Energy: -1267867.7463665
C         -3.10349       -0.50111       -0.25707
C         -1.79373        0.09318       -0.20837
C         -1.47516        1.41932       -0.29434
F         -2.34369        2.40776       -0.48417
C         -0.08689        1.70337       -0.21917
O          0.43403        2.94629       -0.29769
C          0.67547        0.56945       -0.08127
S         -0.33637       -0.85038       -0.04275
C          2.11683        0.54124        0.03584
C          2.87333       -0.55819        0.23025
C          4.32386       -0.55684        0.27575
C          5.19267        0.26678       -0.40050
O          4.89189        1.24976       -1.27647
C          6.55753       -0.04412       -0.11928
F          7.55049        0.64506       -0.67709
C          6.72531       -1.08150        0.73754
H          7.65746       -1.48980        1.09835
S          5.20372       -1.72413        1.23184
C         -4.31531       -0.00653        0.13813
C         -4.94330        1.11175        0.84220
O         -4.52386        2.15566        1.29596
N         -6.29948        0.69185        0.92087
H         -7.00519        1.25987        1.36291
C         -6.49882       -0.55757        0.37368
H         -7.47416       -1.02440        0.39284
C         -5.31571       -1.00747       -0.11558
C         -4.67132       -2.17516       -0.71847
O         -5.08948       -3.23207       -1.13508
N         -3.30264       -1.79139       -0.73473
H         -2.61642       -2.32777       -1.24515
H         -0.28948        3.58741       -0.31348
H          2.58155        1.52466        0.00313
H          2.38787       -1.52604        0.35790
H          3.96628        1.15290       -1.54339
