35
COMP47_110002.log	Energy: -1584947.4130372
C          2.68250       -1.14038       -0.04669
C          1.23681       -1.18784       -0.01544
C          0.44957       -2.30862        0.06769
F          0.92686       -3.55052        0.13516
C         -0.93627       -2.04821        0.07487
F         -1.82792       -3.03782        0.15106
C         -1.24238       -0.71536       -0.00449
S          0.21802        0.22468       -0.08537
C         -2.52530       -0.04082       -0.02845
C         -3.71786       -0.66262        0.05222
C         -5.00372        0.00681        0.02731
C         -5.31685        1.33558       -0.07539
F         -4.42284        2.31969       -0.17868
C         -6.71216        1.60308       -0.06190
F         -7.18418        2.84274       -0.15231
C         -7.47145        0.48302        0.05096
H         -8.54853        0.41702        0.08439
S         -6.47484       -0.91966        0.14115
C          3.54095       -0.07251       -0.10197
C          3.44264        1.40474       -0.13749
O          2.48721        2.14294       -0.13813
N          4.78553        1.82163       -0.14959
O          5.12287        3.12595       -0.32516
C          5.31618        3.76867        0.93768
C          5.74807        0.79551       -0.16264
O          6.94179        0.94918       -0.18436
C          4.91598       -0.43363       -0.11756
C          5.13545       -1.76892       -0.07643
H          6.07450       -2.30492       -0.07614
S          3.63277       -2.61901       -0.01792
H         -2.48932        1.04028       -0.11995
H         -3.75098       -1.74384        0.14509
H          5.57509        4.79857        0.69007
H          6.13779        3.29660        1.48474
H          4.39223        3.74630        1.52360
