48
COMP93_000013.log	Energy: -1025255.9409248
C          0.66327        1.50468       -0.03849
C          1.49374        2.73997       -0.06846
C          1.35682        3.68712        0.94747
C          2.06390        4.88446        0.89145
H          1.95950        5.60980        1.69250
C          2.89558        5.15204       -0.19051
H          3.44147        6.08930       -0.23889
C          3.02284        4.21606       -1.21511
C          2.32771        3.01630       -1.15465
H          2.43139        2.28621       -1.95166
C         -0.74166        1.70056       -0.02386
C         -1.62081        0.65054       -0.06032
C         -3.08109        0.92292       -0.04878
O         -3.56161        2.03301        0.02403
N         -3.90349       -0.20409       -0.12994
C         -5.33408        0.04326       -0.18410
O         -5.93274        0.18845       -1.20833
O         -5.81890        0.07652        1.04369
C         -7.22818        0.32093        1.12586
C         -3.50145       -1.54231       -0.18441
O         -4.32523       -2.43050       -0.22026
C         -2.03426       -1.77490       -0.19289
C         -1.55795       -3.06407       -0.26388
H         -2.26442       -3.88538       -0.31418
C         -0.17279       -3.29509       -0.27253
C          0.71217       -2.24181       -0.20266
C          2.16438       -2.53695       -0.21235
O          2.63072       -3.65325       -0.29968
N          2.99226       -1.42367       -0.10309
C          4.42178       -1.68047       -0.08228
O          5.10844       -1.62717       -1.05943
O          4.79762       -1.96990        1.15008
C          6.19355       -2.25175        1.30007
C          2.61349       -0.08289        0.06128
O          3.46780        0.74017        0.30143
C          1.15349        0.20306       -0.06139
C          0.25365       -0.90152       -0.12782
C         -1.14182       -0.67824       -0.12850
H          0.70492        3.48003        1.79201
H          3.66706        4.42186       -2.06428
H         -1.13577        2.71149       -0.00040
H         -7.45820        0.32503        2.18982
H         -7.77493       -0.47274        0.61244
H         -7.46643        1.28527        0.67259
H          0.22552       -4.30200       -0.33589
H          6.33565       -2.45413        2.36014
H          6.78473       -1.38855        0.98716
H          6.46588       -3.12183        0.69884
