48
COMP92_240000.log	Energy: -2007352.3227022
C          0.84632       -0.01506        0.23523
C         -0.59031        0.18626        0.50956
C         -1.17501        0.85912        1.53797
Cl        -0.32057        1.74739        2.75977
C         -2.59766        0.80235        1.53363
O         -3.39707        1.39057        2.45036
C         -3.09707        0.06305        0.49038
S         -1.79053       -0.56268       -0.48312
C         -4.48865       -0.18668        0.17660
S         -5.80246        0.47882        1.11637
C         -6.98723       -0.25236        0.10814
H         -8.04227       -0.12181        0.29953
C         -6.40704       -0.96606       -0.89124
Cl        -7.25966       -1.85061       -2.12095
C         -4.98114       -0.93728       -0.86275
O         -4.17502       -1.56617       -1.74665
C          1.35766       -1.31803        0.45817
C          2.68550       -1.60936        0.27477
C          3.17407       -2.99284        0.52955
O          2.42728       -3.88079        0.88865
N          4.53957       -3.21677        0.33231
C          5.06859       -4.55907        0.56634
C          5.46443       -2.25358       -0.07487
O          6.63518       -2.54536       -0.21906
C          4.95019       -0.87963       -0.31795
C          5.81639        0.11153       -0.71902
H          6.86627       -0.12653       -0.85030
C          5.33384        1.41161       -0.95256
C          3.99777        1.70335       -0.78843
C          3.53211        3.08958       -1.04906
O          4.29770        3.97597       -1.37460
N          2.16435        3.31345       -0.90868
C          1.64430        4.64888       -1.19809
C          1.20978        2.35464       -0.55252
O          0.03587        2.66106       -0.55083
C          1.70521        0.98769       -0.20285
C          3.08484        0.70313       -0.37693
C          3.57776       -0.59857       -0.13872
H         -2.85855        1.93713        3.03971
H         -4.71722       -2.03405       -2.39730
H          0.68832       -2.10266        0.79515
H          4.24106       -5.19466        0.87243
H          5.83123       -4.52385        1.34658
H          5.52433       -4.94028       -0.34945
H          6.00281        2.20557       -1.26587
H          2.48857        5.28698       -1.44755
H          1.11836        5.03488       -0.32300
H          0.94201        4.60085       -2.03244
