50
COMP92_030002.log	Energy: -1546204.7888568
C         -0.35099       -0.19603       -0.38484
C          1.10541       -0.38475       -0.58116
C          1.72623       -0.85337       -1.69896
H          1.21499       -1.07959       -2.62630
C          3.13403       -1.00125       -1.52201
C          3.98767       -1.49056       -2.55766
N          4.65795       -1.88981       -3.41551
C          3.56276       -0.66023       -0.25268
S          2.22587       -0.14828        0.71324
C          4.91829       -0.67511        0.28305
S          6.26273       -0.14584       -0.66538
C          7.37073       -0.44051        0.61429
H          8.42568       -0.25390        0.46931
C          6.75268       -0.91571        1.72900
H          7.25972       -1.17368        2.64983
C          5.34324       -1.05127        1.54550
C          4.48064       -1.55280        2.56822
N          3.79998       -1.95665        3.41576
C         -1.12825       -1.37571       -0.28793
C         -2.48259       -1.32349       -0.07671
C         -3.24929       -2.59792        0.01489
O         -2.74897       -3.68912       -0.12791
N         -4.61692       -2.44254        0.26788
O         -5.31513       -3.59579        0.49923
C         -5.88124       -4.10408       -0.71069
C         -5.33803       -1.25032        0.41208
O         -6.53310       -1.25332        0.59713
C         -4.52633       -0.00639        0.30356
C         -5.14918        1.21207        0.44002
H         -6.21752        1.23929        0.62515
C         -4.40062        2.39837        0.33959
C         -3.04632        2.35166        0.09814
C         -2.30400        3.63357       -0.01195
O         -2.81214        4.72110        0.13604
N         -0.94453        3.49113       -0.30049
O         -0.27560        4.64956       -0.58747
C          0.34533        5.18337        0.58357
C         -0.20811        2.31150       -0.47690
O          0.96579        2.36320       -0.76081
C         -0.97534        1.04161       -0.28335
C         -2.37561        1.11066       -0.04542
C         -3.13305       -0.07763        0.06346
H         -0.64485       -2.34336       -0.37320
H         -6.39896       -5.01469       -0.40843
H         -5.09497       -4.34596       -1.43167
H         -6.59709       -3.39019       -1.12854
H         -4.87506        3.36767        0.44794
H          0.83864        6.09296        0.24029
H          1.08817        4.48348        0.97765
H         -0.40686        5.42981        1.33846
