33
COMP27_020400.log	Energy: -1875618.7975951
C         -3.01540       -0.17644       -0.21155
C         -1.59826       -0.42442        0.07469
C         -1.04156       -1.35993        0.90695
Cl        -1.97085       -2.45613        1.87818
C          0.37526       -1.33422        0.95955
H          0.95890       -1.98332        1.60035
C          0.90902       -0.36852        0.14583
S         -0.34400        0.51340       -0.66658
C          2.30476       -0.02995       -0.08682
C          3.33695       -0.84259        0.19397
C          4.73466       -0.46980        0.02974
C          5.29525        0.77849       -0.05474
H          4.73995        1.70404        0.03304
C          6.70437        0.72337       -0.23150
Cl         7.68401        2.15134       -0.36269
C          7.21283       -0.53984       -0.26989
H          8.24505       -0.83641       -0.38653
S          5.95666       -1.70224       -0.09539
C         -3.63281        1.08425        0.09187
N         -3.02497        2.13606        0.62975
S         -4.15530        3.30371        0.77908
N         -5.45366        2.52097        0.17036
C         -5.03288        1.30835       -0.17158
C         -5.83308        0.27622       -0.74440
H         -6.88744        0.44713       -0.93570
C         -5.22139       -0.90177       -1.02963
O         -5.83092       -1.98598       -1.58217
C         -3.81241       -1.13674       -0.77881
O         -3.30750       -2.32987       -1.13116
H          2.50088        0.94628       -0.52607
H          3.14030       -1.84765        0.56191
H         -6.76494       -1.80302       -1.73932
H         -4.02822       -2.87479       -1.48093
