37
COMP21_100400.log	Energy: -1471944.4260208
C          2.39414        0.29513        0.17605
C          0.94022        0.12917        0.12131
C          0.03906        1.02235       -0.34998
F          0.41604        2.18161       -0.90046
C         -1.34724        0.64242       -0.23751
C         -2.50646        1.33174       -0.62146
C         -2.52165        2.69305       -1.26449
C         -3.70554        0.67156       -0.36821
S         -5.28688        1.33002       -0.75508
C         -6.07057       -0.08874       -0.12282
H         -7.14650       -0.18633       -0.12986
C         -5.18629       -0.98954        0.34489
F         -5.57071       -2.15706        0.87833
C         -3.79536       -0.61006        0.23184
C         -2.63610       -1.29999        0.61164
C         -2.62092       -2.66278        1.25138
C         -1.43598       -0.63871        0.36233
S          0.13852       -1.30248        0.74149
C          3.29370       -0.71565       -0.30793
N          2.93744       -1.87657       -0.84645
S          4.31647       -2.65944       -1.23107
N          5.41468       -1.55690       -0.73437
C          4.72337       -0.53272       -0.24702
C          5.27518        0.66456        0.29522
H          6.35095        0.80055        0.33608
C          4.40333        1.60115        0.74907
O          4.75832        2.79317        1.30288
C          2.96503        1.42532        0.70532
O          2.20463        2.40732        1.21802
H         -1.52140        3.09911       -1.39498
H         -3.09973        3.39707       -0.65359
H         -3.00323        2.64463       -2.24878
H         -3.62108       -3.07124        1.37701
H         -2.14306       -2.61613        2.23747
H         -2.03829       -3.36331        0.64092
H          5.71883        2.87782        1.32879
H          2.78991        3.10807        1.54164
