56
COMP92_430003.log	Energy: -1782847.2315905
C         -0.35083       -0.14465       -0.35206
C          1.04824       -0.56178       -0.56982
C          1.49378       -1.33053       -1.61213
O          0.78912       -1.75592       -2.67848
C          2.87166       -1.69208       -1.49243
C          3.52829       -2.50094       -2.46522
N          4.05163       -3.15726       -3.26498
C          3.44800       -1.20242       -0.33487
S          2.31159       -0.28731        0.58145
C          4.82494       -1.35236        0.11647
S          6.13736       -1.31697       -1.00322
C          7.30457       -1.50969        0.24721
H          8.35775       -1.56389        0.00843
C          6.71840       -1.59303        1.47668
O          7.31127       -1.75179        2.67707
C          5.29057       -1.50020        1.41075
C          4.47172       -1.58763        2.57481
N          3.81519       -1.65355        3.52821
C         -1.29802       -1.19465       -0.22926
C         -2.62447       -0.94313        0.01043
C         -3.57186       -2.08430        0.12714
O         -3.24625       -3.24205       -0.01543
N         -4.89360       -1.74156        0.41658
C         -5.82728       -2.84441        0.58697
O         -6.06184       -3.33971        1.64849
O         -6.33132       -3.17168       -0.58779
C         -7.26302       -4.26095       -0.55966
C         -5.41848       -0.45427        0.56884
O         -6.59917       -0.29088        0.78316
C         -4.44213        0.65978        0.44454
C         -4.87624        1.95556        0.59941
H         -5.92342        2.13951        0.81335
C         -3.96346        3.01806        0.47749
C         -2.63861        2.77272        0.19696
C         -1.71536        3.92512        0.06400
O         -2.04087        5.07861        0.24063
N         -0.41124        3.59755       -0.30233
C          0.48557        4.71183       -0.57176
O          0.53383        5.26845       -1.62784
O          1.18912        4.97277        0.51337
C          2.13579        6.03982        0.37417
C          0.12694        2.32340       -0.50465
O          1.27101        2.21814       -0.88854
C         -0.79102        1.17325       -0.24863
C         -2.15828        1.44715        0.03575
C         -3.08158        0.38458        0.16583
H         -0.08997       -1.35528       -2.67433
H          8.26665       -1.82022        2.56292
H         -0.96504       -2.22549       -0.30507
H         -7.54998       -4.42114       -1.59724
H         -8.13048       -3.99320        0.04717
H         -6.78457       -5.15102       -0.14648
H         -4.28650        4.04627        0.59951
H          2.61851        6.12565        1.34589
H          1.61994        6.96612        0.11364
H          2.86381        5.79202       -0.40087
