42
COMP92_140001.log	Energy: -1505750.1029880
C          0.78909       -0.05616        0.10490
C         -0.63982       -0.34428        0.25856
C         -1.24612       -1.28906        1.02632
F         -0.61246       -2.21158        1.75826
C         -2.66093       -1.24609        1.03106
O         -3.43946       -2.10127        1.73478
C         -3.15873       -0.22699        0.25803
S         -1.85088        0.67052       -0.47248
C         -4.54729        0.09946        0.02123
S         -5.86340       -0.84447        0.68613
C         -7.05337        0.17096       -0.03979
H         -8.10926       -0.01334        0.08987
C         -6.46259        1.16492       -0.74418
F         -7.09545        2.12927       -1.43165
C         -5.04103        1.14188       -0.72097
O         -4.26104        2.04518       -1.35942
C          1.18615        1.29217        0.31555
C          2.49880        1.67273        0.27574
C          2.85129        3.09733        0.52653
O          2.03504        3.96704        0.74405
N          4.21074        3.37999        0.49595
H          4.46595        4.34601        0.66661
C          5.26687        2.50578        0.26654
O          6.41392        2.89953        0.27477
C          4.88034        1.09071        0.01556
C          5.86104        0.15660       -0.22683
H          6.89910        0.47071       -0.22793
C          5.50434       -1.17898       -0.47139
C          4.18134       -1.56207       -0.46881
C          3.85567       -2.98120       -0.75260
O          4.68540       -3.84339       -0.95599
N          2.50188       -3.26250       -0.78484
H          2.25130       -4.21469       -1.02507
C          1.42036       -2.41022       -0.57350
O          0.29837       -2.83976       -0.73284
C          1.76655       -1.00605       -0.19320
C          3.14380       -0.62637       -0.21261
C          3.51429        0.71747        0.02808
H         -2.87835       -2.79200        2.11147
H         -4.83065        2.68066       -1.81300
H          0.43635        2.04286        0.54429
H          6.25885       -1.93256       -0.66983
