60
COMP93_000033.log	Energy: -1311161.2864347
C          0.42981        0.52415        0.20509
C          1.62598        1.39507        0.43061
C          1.69865        2.52831       -0.37700
C          2.71890        3.46595       -0.23248
C          2.70912        4.64398       -1.14909
O          1.88366        4.82227       -2.01554
O          3.71945        5.48853       -0.90283
C          3.76785        6.64351       -1.74015
C          3.69063        3.28205        0.74602
H          4.48535        4.00832        0.86939
C          3.63053        2.15700        1.55554
C          2.61515        1.21149        1.41768
C          2.72820        0.03129        2.33865
O          3.72041       -0.20835        2.98516
O          1.62678       -0.72702        2.37795
C          1.75064       -1.96184        3.09073
C         -0.82358        1.15720        0.38799
C         -2.00737        0.49243        0.19204
C         -3.29043        1.21276        0.39308
O         -3.36872        2.38015        0.70762
N         -4.44599        0.45018        0.19638
C         -5.71185        1.12154        0.43711
O         -6.26080        1.11769        1.49887
O         -6.11661        1.70339       -0.67675
C         -7.35972        2.40735       -0.56807
C         -4.51874       -0.89252       -0.18560
O         -5.59272       -1.42827       -0.35371
C         -3.21509       -1.58388       -0.35819
C         -3.19910       -2.91996       -0.68563
H         -4.14058       -3.44183       -0.81750
C         -1.97114       -3.58996       -0.82252
C         -0.78366       -2.91233       -0.65982
C          0.48536       -3.67134       -0.74950
O          0.55297       -4.86951       -0.92427
N          1.64032       -2.90695       -0.59481
C          2.90133       -3.62368       -0.60102
O          3.46253       -3.94470        0.40730
O          3.28838       -3.84541       -1.84046
C          4.51429       -4.57659       -1.96715
C          1.73089       -1.51729       -0.44282
O          2.81952       -0.98949       -0.50458
C          0.44819       -0.80546       -0.19451
C         -0.76663       -1.52665       -0.35176
C         -2.00573       -0.87044       -0.17728
H          0.95503        2.69705       -1.14985
H          4.62052        7.22372       -1.38942
H          2.84460        7.22029       -1.64845
H          3.90480        6.35356       -2.78467
H          4.38495        1.98231        2.31426
H          0.76418       -2.42265        3.03902
H          2.03687       -1.78046        4.12832
H          2.49566       -2.59828        2.60595
H         -0.85708        2.19680        0.69739
H         -7.53517        2.83676       -1.55276
H         -7.28106        3.19042        0.18878
H         -8.15801        1.71316       -0.29767
H         -1.93705       -4.65110       -1.04471
H          4.68168       -4.67571       -3.03800
H          4.41215       -5.55731       -1.49806
H          5.32930       -4.02472       -1.49462
