42
COMP31_400030.log	Energy: -1515223.7434426
C         -3.01781       -0.18054       -0.03581
C         -1.55043       -0.15865       -0.00192
C         -0.74448        0.92333       -0.20899
O         -1.13455        2.17161       -0.54961
C          0.66391        0.60711       -0.14664
C          1.75292        1.47496       -0.27895
C          1.61977        2.96523       -0.35294
O          2.10123        3.64703       -1.22623
O          0.98639        3.44918        0.71820
C          0.78871        4.86243        0.71559
C          3.02575        0.91414       -0.30427
S          4.52011        1.78366       -0.56391
C          5.42856        0.30805       -0.37945
H          6.50301        0.32442       -0.50987
C          4.65865       -0.78109       -0.14574
O          5.06870       -2.06629       -0.05316
C          3.24686       -0.46526       -0.06366
C          2.16029       -1.31377        0.18769
C          2.33904       -2.70953        0.70029
O          3.03909       -3.01419        1.63152
O          1.55343       -3.57177        0.03612
C          1.56806       -4.91258        0.52759
C          0.87874       -0.77216        0.07679
S         -0.62931       -1.63501        0.25691
C         -3.73878       -1.19517       -0.67775
F         -3.09802       -2.18883       -1.29211
C         -5.12734       -1.19888       -0.70180
F         -5.75434       -2.19148       -1.33129
C         -5.85954       -0.18967       -0.09943
H         -6.94201       -0.19409       -0.12820
C         -5.16752        0.82578        0.53603
F         -5.82497        1.81891        1.13408
C         -3.78132        0.81924        0.57288
F         -3.16799        1.82992        1.22409
H         -1.90688        2.42007       -0.02300
H          0.30237        5.09063        1.66333
H          0.15120        5.15168       -0.12392
H          1.74510        5.38425        0.63699
H          6.03117       -2.09803       -0.10531
H          0.84716       -5.45468       -0.08280
H          1.27967       -4.93766        1.58112
H          2.56585       -5.34394        0.41882
