40
COMP71_100001.log	Energy: -1748738.9397632
C          1.39420        1.39590        0.35575
C          0.00334        0.99881        0.20441
C         -0.59966       -0.09367        0.72961
F          0.05900       -0.96644        1.48778
C         -2.00734       -0.22711        0.44917
C         -2.90565       -1.23512        0.82700
C         -2.53599       -2.44827        1.63802
C         -4.21909       -1.05191        0.40275
S         -5.52727       -2.16760        0.75575
C         -6.65644       -1.17233       -0.11416
H         -7.69717       -1.44882       -0.20169
C         -6.07322       -0.07425       -0.63024
F         -6.75727        0.83222       -1.34040
C         -4.65789        0.05682       -0.36523
C         -3.75746        1.06064       -0.74830
C         -4.12107        2.26825       -1.57051
C         -2.44593        0.88018       -0.31908
S         -1.14153        1.99293       -0.68070
C          2.54955        0.67233        0.15605
C          2.63421       -0.71177       -0.38236
O          1.66787       -1.38013       -0.69913
C          4.02026       -1.22503       -0.52775
C          4.32671       -2.47238       -0.99022
H          3.62966       -3.23551       -1.30781
S          6.02563       -2.73015       -1.02099
C          6.34588       -1.15646       -0.41058
H          7.35467       -0.80577       -0.24121
C          5.18935       -0.46476       -0.19226
C          5.11447        0.92096        0.31816
O          6.09662        1.58465        0.59711
C          3.73024        1.43981        0.45317
C          3.45278        2.71401        0.85065
H          4.17295        3.47666        1.11372
S          1.76747        3.00991        0.89150
H         -1.46075       -2.54506        1.76916
H         -2.90250       -3.35858        1.14954
H         -2.99969       -2.40046        2.63084
H         -5.19031        2.33092       -1.75909
H         -3.60473        2.24185       -2.53783
H         -3.81007        3.18718       -1.05923
