31
COMP22_310400.log	Energy: -1490507.4642577
C         -2.22214       -0.15715        0.19183
C         -0.82241       -0.53061       -0.02442
C         -0.33930       -1.73093       -0.50232
C         -1.14183       -2.81569       -0.96050
N         -1.79201       -3.69209       -1.35028
C          1.08108       -1.74677       -0.54137
F          1.75718       -2.80843       -0.98019
C          1.68640       -0.60058       -0.11311
S          0.46865        0.55344        0.35036
C          3.10696       -0.31986       -0.05002
S          4.32140       -1.45560       -0.57450
C          5.59842       -0.38878       -0.17366
H          6.62823       -0.67494       -0.33350
C          5.14288        0.79489        0.34318
C          5.97408        1.87375        0.76706
N          6.65140        2.74852        1.11112
C          3.71879        0.81378        0.40567
F          3.05184        1.86569        0.87558
C         -2.75651        1.08687       -0.29065
N         -2.07731        2.02733       -0.93638
S         -3.13557        3.22484       -1.26981
N         -4.48889        2.59343       -0.61199
C         -4.14762        1.41449       -0.10411
C         -5.02092        0.51218        0.57187
H         -6.06799        0.76393        0.70389
C         -4.48616       -0.64587        1.03631
O         -5.16555       -1.61142        1.70879
C         -3.08634       -0.98545        0.86553
O         -2.65438       -2.13179        1.40799
H         -6.10121       -1.38528        1.77445
H         -3.41715       -2.62222        1.75054
