41
COMP47_430003.log	Energy: -1617176.9508391
C         -2.47860       -1.50870       -0.11328
C         -1.02900       -1.55483       -0.04439
C         -0.20386       -2.67365       -0.03625
C         -0.59245       -4.04173       -0.08588
N         -0.78197       -5.18701       -0.12297
C          1.18643       -2.35953        0.03358
O          2.17299       -3.27766        0.05510
C          1.42606       -1.00534        0.08049
S         -0.06708       -0.12294        0.03920
C          2.67863       -0.27758        0.15164
C          3.90701       -0.83217        0.23040
C          5.13501       -0.05273        0.23715
C          5.40464        1.11934       -0.43070
O          4.58150        1.78958       -1.26125
C          6.73254        1.60577       -0.19776
C          7.25307        2.80225       -0.77590
N          7.68740        3.77118       -1.24027
C          7.44807        0.78476        0.63346
H          8.46608        0.92813        0.96693
S          6.53846       -0.57383        1.13085
C         -3.34223       -0.43720       -0.07516
C         -3.25214        1.03726        0.02969
O         -2.27867        1.74564        0.07044
N         -4.60180        1.48718        0.01835
C         -5.00366        2.85029        0.04715
O         -5.91315        3.28354       -0.60405
O         -4.24671        3.52940        0.89814
C         -4.50981        4.93477        0.94881
C         -5.54683        0.42408       -0.11573
O         -6.74062        0.53433       -0.13139
C         -4.70666       -0.79328       -0.17158
C         -4.92760       -2.12660       -0.28325
H         -5.86528       -2.65761       -0.37266
S         -3.43039       -2.97513       -0.27282
H          1.80078       -4.17010       -0.00246
H          2.58620        0.80746        0.18374
H          4.00292       -1.91249        0.28528
H          3.84334        1.21148       -1.50391
H         -3.78866        5.33473        1.65953
H         -5.53175        5.11606        1.28837
H         -4.36935        5.38350       -0.03697
