47
COMP99_000010.log	Energy: -1360103.9355868
C         -0.14610       -0.02845        0.02181
C          1.31906        0.03271        0.13712
C          2.07919        0.77041        1.00933
C          3.45687        0.48874        0.89485
C          3.73059       -0.46118       -0.06618
S          2.31276       -1.03485       -0.83803
C          5.16067       -0.65825       -0.13983
C          5.77258        0.16362        0.78010
C          4.73968        0.97423        1.52840
H          4.88124        2.05215        1.38560
H          4.76794        0.78202        2.60772
C          7.18598        0.03000        0.77779
C          7.60466       -0.88841       -0.14373
H          8.61910       -1.19048       -0.36487
S          6.28993       -1.60672       -1.02221
C         -0.72507       -1.32811        0.05374
C         -2.07913       -1.52452        0.04787
C         -2.61536       -2.91298        0.09936
O         -1.88558       -3.88396        0.11976
N         -4.00648       -3.04136        0.12252
C         -4.58424       -4.38257        0.17623
C         -4.91313       -1.97976        0.12325
O         -6.10885       -2.19224        0.16945
C         -4.34992       -0.60495        0.06232
C         -5.20046        0.47769        0.04590
H         -6.27122        0.30939        0.07902
C         -4.66984        1.77605       -0.01331
C         -3.30676        1.97848       -0.05557
C         -2.80342        3.37178       -0.12577
O         -3.54926        4.33242       -0.10323
N         -1.42390        3.51397       -0.23689
C         -0.87613        4.85973       -0.39568
C         -0.48824        2.47039       -0.27550
O          0.67382        2.74529       -0.49222
C         -0.99586        1.07868       -0.06237
C         -2.40680        0.88567       -0.03312
C         -2.95212       -0.41600        0.02622
H          1.64835        1.49003        1.69416
H          7.86507        0.58124        1.41755
H         -0.07981       -2.19857        0.11398
H         -3.77325       -5.10030        0.07884
H         -5.30466       -4.50128       -0.63456
H         -5.10292       -4.52589        1.12678
H         -5.32002        2.64398       -0.02674
H         -1.69480        5.56704       -0.28837
H         -0.41272        4.96054       -1.37925
H         -0.11400        5.03692        0.36518
