37
COMP45_000012.log	Energy: -918811.5622208
C          1.23642        1.26632       -0.05287
C         -0.21746        1.06905        0.00946
C         -0.75429       -0.19753       -0.23080
C         -2.13437       -0.34319       -0.16334
N         -2.89428       -1.47955       -0.35411
H         -2.52443       -2.39390       -0.55364
C         -4.23052       -1.17076       -0.19037
C         -5.35099       -1.99663       -0.28321
C         -6.59346       -1.41682       -0.07404
H         -7.48379       -2.03506       -0.13990
C         -6.72580       -0.05032        0.22022
C         -5.60794        0.76451        0.31287
C         -4.34437        0.20550        0.10823
C         -2.99822        0.73463        0.12725
C         -2.44646        1.99452        0.36633
C         -1.07390        2.15330        0.31063
C          2.28124        0.37448       -0.10669
C          2.48955       -1.09784       -0.11507
O          1.72300       -2.03333       -0.12305
N          3.88871       -1.23635       -0.10160
O          4.47898       -2.44895       -0.27143
C          4.75579       -3.05269        0.99406
C          4.62653       -0.04107       -0.15404
O          5.82727        0.04644       -0.18178
C          3.56624        0.99369       -0.13930
C          3.53634        2.34622       -0.12374
H          4.35958        3.04664       -0.14027
S          1.89990        2.89119       -0.07573
H         -0.11123       -1.04364       -0.44630
H         -5.25460       -3.05399       -0.51018
H         -7.71432        0.36983        0.37583
H         -5.71221        1.82167        0.53964
H         -3.08346        2.84158        0.60253
H         -0.65467        3.13318        0.51794
H          5.24027       -3.99934        0.75248
H          3.82601       -3.23636        1.54094
H          5.43351       -2.42372        1.57919
