34
COMP57_010400.log	Energy: -1673200.3622209
C          1.65356       -0.17113       -0.32503
C          0.24852        0.18736       -0.30162
C         -0.33455        1.38779       -0.60900
F          0.37465        2.44672       -1.00134
C         -1.74049        1.44059       -0.47659
H         -2.31825        2.33434       -0.67517
C         -2.26350        0.24032       -0.06771
S         -0.99910       -0.92565        0.19799
C         -3.64682       -0.14467        0.15692
C         -4.70894        0.59211       -0.21088
C         -6.09245        0.23719        0.05992
C         -6.60244       -0.71406        0.90712
H         -6.00991       -1.35259        1.54999
C         -8.01867       -0.74697        0.86689
F         -8.72184       -1.59791        1.61677
C         -8.58954        0.15535        0.02196
H         -9.64063        0.31526       -0.16551
S         -7.37051        1.08224       -0.76338
C          2.22567       -1.32539       -0.81856
O          1.59310       -2.35510       -1.40920
N          3.57195       -1.43334       -0.69413
C          4.05840       -0.36916       -0.11589
S          2.90812        0.84494        0.32507
C          5.47690       -0.18171        0.14031
S          6.63840       -1.38700       -0.30713
C          7.87293       -0.36730        0.33404
H          8.91390       -0.65689        0.31620
C          7.31443        0.78273        0.82537
O          7.94274        1.82515        1.40530
N          5.96239        0.88384        0.71492
H         -3.80687       -1.09994        0.65263
H         -4.54927        1.52205       -0.75324
H          0.66976       -2.11528       -1.56920
H          8.89056        1.64913        1.42696
