31
COMP27_100100.log	Energy: -1453473.3491334
C          2.70234        0.33249        0.00030
C          1.29038       -0.04251        0.00260
C          0.77057       -1.31639        0.00911
H          1.36741       -2.21643        0.01350
C         -0.63635       -1.31562        0.00790
F         -1.32927       -2.46284        0.01323
C         -1.23320       -0.07973        0.00124
S          0.00230        1.13717       -0.00297
C         -2.63136        0.30370       -0.00164
C         -3.66334       -0.56333        0.00221
C         -5.06433       -0.18720       -0.00045
C         -5.66676        1.04567        0.00777
F         -4.97846        2.19492        0.02078
C         -7.08366        1.03663        0.00238
H         -7.68781        1.93471        0.00783
C         -7.56785       -0.23727       -0.01017
H         -8.60183       -0.55198       -0.01719
S         -6.30582       -1.40810       -0.01542
C          3.76849       -0.64744       -0.00005
N          3.61844       -1.96895        0.00132
S          5.10906       -2.62237        0.00028
N          6.00818       -1.26791       -0.00227
C          5.15726       -0.24507       -0.00218
C          5.53216        1.12821       -0.00395
H          6.57006        1.43459       -0.00579
C          4.51698        2.02316       -0.00364
F          4.74757        3.33359       -0.00558
C          3.13924        1.63198       -0.00145
F          2.26964        2.64602       -0.00198
H         -2.83218        1.37023       -0.00795
H         -3.45936       -1.62929        0.00803
