34
COMP57_410200.log	Energy: -2249973.2597496
C          1.58089        0.42469       -0.07000
C          0.19626        0.00426       -0.04898
C         -0.26863       -1.27504        0.09592
F          0.51755       -2.35507        0.25056
C         -1.67321       -1.43770        0.08012
O         -2.28660       -2.63562        0.21516
C         -2.32460       -0.23979       -0.08546
S         -1.17603        1.06530       -0.21930
C         -3.74296        0.05111       -0.14693
C         -4.72816       -0.87229       -0.10923
C         -6.14287       -0.54283       -0.10769
C         -6.76139        0.55042        0.44992
O         -6.18784        1.56147        1.14022
C         -8.17732        0.51831        0.27063
F         -8.95393        1.49310        0.73902
C         -8.62812       -0.57420       -0.39449
H         -9.65021       -0.81054       -0.64979
S         -7.32101       -1.61554       -0.82119
C          2.14636        1.67729       -0.17895
Cl         1.26161        3.15330       -0.32622
N          3.49829        1.75459       -0.16928
C          4.01421        0.56363       -0.05313
S          2.87722       -0.73633        0.05349
C          5.44443        0.31361       -0.01158
S          6.59645        1.60806       -0.11411
C          7.85467        0.44177        0.00682
H          8.89965        0.71359       -0.00560
C          7.31017       -0.80370        0.11201
Cl         8.23661       -2.25549        0.25182
N          5.95344       -0.88231        0.10237
H         -1.61167       -3.31725        0.33554
H         -4.00289        1.10107       -0.27464
H         -4.46633       -1.92596       -0.06895
H         -5.30185        1.28029        1.41139
