48
COMP71_200020.log	Energy: -2344695.2227804
C          1.45324        1.68579        0.20051
C          0.05699        1.24559        0.16360
C         -0.64459        0.66938        1.17112
Cl         0.05908        0.39872        2.72900
C         -2.00098        0.31885        0.81531
C         -3.02294       -0.29094        1.55376
O         -2.86727       -0.69543        2.84595
C         -2.36180       -2.02172        2.97828
C         -4.25841       -0.45409        0.93788
S         -5.65815       -1.13887        1.72834
C         -6.59915       -0.92475        0.28436
H         -7.64118       -1.21256        0.26411
C         -5.90486       -0.36557       -0.73102
Cl        -6.64581       -0.01787       -2.26084
C         -4.52513       -0.07378       -0.40061
C         -3.48972        0.49453       -1.15278
O         -3.63782        0.89162       -2.44888
C         -3.37622       -0.13529       -3.40208
C         -2.26510        0.69118       -0.52493
S         -0.88813        1.43159       -1.29591
C          2.58973        0.93914        0.01405
C          2.62057       -0.51593       -0.29376
O          1.60598       -1.18196       -0.42512
C          3.97827       -1.08320       -0.43267
C          4.22871       -2.40441       -0.70342
C          3.25853       -3.52487       -0.91090
S          5.93550       -2.67457       -0.78893
C          6.32845       -1.02202       -0.46375
C          7.75080       -0.56104       -0.39831
C          5.17854       -0.29427       -0.29639
C          5.14836        1.15207       -0.00627
O          6.15057        1.84083        0.10579
C          3.78537        1.71842        0.14291
C          3.53350        3.03181        0.41645
H          4.26828        3.81318        0.55521
S          1.85308        3.34128        0.52754
H         -2.25771       -2.20047        4.04890
H         -1.38391       -2.11968        2.49441
H         -3.06047       -2.74919        2.54741
H         -3.48113        0.32886       -4.38322
H         -4.09989       -0.95208       -3.30553
H         -2.35929       -0.52839       -3.28420
H          2.62250       -3.64406       -0.02944
H          3.77394       -4.46869       -1.10751
H          2.59287       -3.30049       -1.74891
H          8.44821       -1.38712       -0.56015
H          7.95686       -0.10574        0.57418
H          7.93390        0.21145       -1.15055
