28
COMP52_020100.log	Energy: -2107058.3350683
C         -1.04310       -0.20175       -0.13856
C          0.35188        0.18952       -0.10657
C          0.85293        1.44507        0.12330
H          0.24867        2.32295        0.31883
C          2.26993        1.47312        0.08907
Cl         3.16710        2.92766        0.36542
C          2.85139        0.25935       -0.16157
S          1.63071       -0.95635       -0.36919
C          4.27008       -0.06994       -0.26917
S          5.20284        0.38056       -1.66337
C          6.62899       -0.32882       -1.01649
H          7.55669       -0.28877       -1.57061
C          6.41640       -0.89292        0.20433
H          7.17401       -1.39217        0.79449
C          5.06402       -0.74112        0.62250
Cl         4.49213       -1.34161        2.14393
C         -1.59743       -1.44032       -0.33659
F         -0.87364       -2.53211       -0.54400
N         -2.93804       -1.55511       -0.32015
C         -3.47043       -0.38189       -0.10504
S         -2.34674        0.92510        0.08823
C         -4.90089       -0.15098       -0.02733
S         -6.04150       -1.44399       -0.21499
C         -7.31179       -0.30470        0.00995
H         -8.35554       -0.57825       -0.00975
C         -6.76756        0.92899        0.20317
F         -7.47468        2.02854        0.40607
N         -5.42016        1.02922        0.18477
