52
COMP93_000022.log	Energy: -1026663.6795280
C         -0.68861       -0.63262        0.00261
C         -2.01254       -1.31098        0.00755
C         -2.90967       -1.10688       -1.04102
C         -4.12044       -1.79147       -1.07852
O         -5.05812       -1.65102       -2.05264
C         -4.83768       -0.66544       -3.03577
C         -4.42051       -2.69810       -0.06137
H         -5.36611       -3.22829       -0.10027
C         -3.53128       -2.91291        0.98067
C         -2.31927       -2.22084        1.02390
O         -1.38767       -2.35542        2.00927
C         -1.62329       -3.31343        3.01539
C          0.44708       -1.47427       -0.12936
C          1.71404       -0.96703       -0.22991
C          2.85918       -1.90607       -0.37003
O          2.74783       -3.11082       -0.36364
N          4.11032       -1.28913       -0.50026
O          5.16282       -2.12321       -0.76360
C          5.79511       -2.54429        0.44572
C          4.40499        0.07995       -0.47763
O          5.54416        0.48058       -0.55839
C          3.22476        0.97510       -0.33302
C          3.41942        2.33811       -0.31477
H          4.42650        2.72890       -0.41069
C          2.31852        3.19745       -0.17637
C          1.04413        2.68715       -0.05244
C         -0.08188        3.64376        0.09397
O          0.05289        4.84745        0.11109
N         -1.33105        3.04201        0.23432
O         -2.40058        3.89321        0.30399
C         -2.66298        4.27966        1.65446
C         -1.63979        1.67178        0.32857
O         -2.76064        1.33089        0.62397
C         -0.49963        0.74173        0.06194
C          0.81173        1.28972       -0.06491
C          1.92479        0.43227       -0.21276
H         -2.64350       -0.39370       -1.81238
H         -5.72212       -0.67229       -3.67404
H         -3.95358       -0.89405       -3.64597
H         -4.72060        0.32927       -2.58651
H         -3.79639       -3.61992        1.75794
H         -0.74770       -3.28881        3.66514
H         -1.73345       -4.32080        2.59367
H         -2.51639       -3.06661        3.60371
H          0.30837       -2.54913       -0.15914
H          6.59954       -3.20411        0.11928
H          5.09250       -3.09965        1.07409
H          6.21204       -1.68558        0.98005
H          2.44868        4.27413       -0.16401
H         -3.50729        4.96625        1.58445
H         -1.79878        4.79846        2.07956
H         -2.93905        3.40838        2.25503
