47
COMP56_000030.log	Energy: -1313019.1851327
C          2.04590       -0.28291       -0.36125
C          0.65518       -0.75274       -0.36532
C         -0.38200        0.16648       -0.14943
C         -1.68716       -0.28206       -0.18690
C         -2.95979        0.52304        0.03390
C         -2.86901        1.16077        1.42355
O         -2.33153        2.22397        1.62321
O         -3.37462        0.37957        2.37552
C         -3.21121        0.86437        3.71006
C         -3.10864        1.65887       -0.98548
O         -2.33771        1.91003       -1.87400
O         -4.23788        2.33941       -0.75272
C         -4.47604        3.44466       -1.62546
C         -4.04030       -0.53988       -0.12854
C         -5.41706       -0.40544       -0.04758
C         -6.20974       -1.53794       -0.23307
H         -7.29028       -1.45046       -0.17284
C         -5.62951       -2.77955       -0.49276
C         -4.24573       -2.91400       -0.57249
C         -3.45416       -1.78600       -0.38896
C         -1.99592       -1.62666       -0.41581
C         -0.97362       -2.54617       -0.61785
C          0.34336       -2.10134       -0.59444
C          2.52250        0.93860       -0.75994
H          1.90561        1.73041       -1.16835
N          3.86972        1.13064       -0.65216
C          4.44597        0.06377       -0.17490
S          3.37539       -1.25596        0.18625
C          5.87812       -0.04759        0.05368
S          6.94741        1.27803       -0.29788
C          8.26093        0.30109        0.23660
H          9.27707        0.66902        0.23371
C          7.80676       -0.92146        0.63159
H          8.42807       -1.72349        1.01057
N          6.45561       -1.11625        0.52642
H         -0.16578        1.20932        0.05813
H         -3.66050        0.10779        4.35168
H         -3.71751        1.82465        3.83146
H         -2.15055        0.98718        3.94110
H         -5.41274        3.88664       -1.28819
H         -4.56166        3.10228       -2.65935
H         -3.66137        4.16827       -1.55064
H         -5.86747        0.56068        0.15203
H         -6.26308       -3.64990       -0.63489
H         -3.79589       -3.88191       -0.77371
H         -1.19060       -3.59449       -0.79958
H          1.14574       -2.81102       -0.77601
