37
COMP25_000120.log	Energy: -983636.9711320
C          1.95900        0.19991       -0.19155
C          0.53412       -0.20145       -0.24663
C         -0.43423        0.60151        0.35497
C         -1.75744        0.19309        0.25914
N         -2.89267        0.78610        0.77493
O         -2.92002        2.05047        1.29565
C         -3.01292        3.02166        0.24821
C         -4.01891        0.08203        0.39473
C         -5.36083        0.35299        0.64836
C         -6.29037       -0.55464        0.15981
H         -7.34689       -0.37767        0.33742
C         -5.89532       -1.69824       -0.55186
C         -4.55361       -1.95508       -0.79693
C         -3.59603       -1.05383       -0.32888
C         -2.14958       -0.98126       -0.41641
C         -1.16363       -1.77848       -0.99796
C          0.16293       -1.38732       -0.91260
C          3.01162       -0.72999        0.12958
N          2.84547       -2.01786        0.42330
S          4.32514       -2.62510        0.72144
N          5.23529       -1.29288        0.49766
C          4.39351       -0.31333        0.17564
C          4.75999        1.03552       -0.09849
H          5.79157        1.36195       -0.06679
C          3.74972        1.88670       -0.39596
F          3.98598        3.16862       -0.67146
C          2.37529        1.47641       -0.44276
F          1.50871        2.43930       -0.76943
H         -0.17283        1.50537        0.89225
H         -3.02873        3.98746        0.75488
H         -3.93505        2.88169       -0.32570
H         -2.14438        2.95927       -0.41613
H         -5.65581        1.23169        1.21174
H         -6.65011       -2.38987       -0.91231
H         -4.25199       -2.84116       -1.34804
H         -1.42921       -2.69348       -1.51887
H          0.93258       -2.00338       -1.36236
