39
COMP47_330002.log	Energy: -1567383.3747757
C         -2.99168        0.99055        0.08683
C         -1.54946        1.18937        0.04754
C         -0.83863        2.37817        0.06243
C         -1.40809        3.68562        0.09984
N         -1.84257        4.76009        0.13203
C          0.57974        2.19082        0.03746
C          1.49327        3.28486        0.05418
N          2.24949        4.16401        0.06349
C          0.94401        0.85822        0.00297
S         -0.45560       -0.15402       -0.00759
C          2.24262        0.20626       -0.02582
C          3.42940        0.83189       -0.14314
C          4.72862        0.17972       -0.15069
C          5.11411       -1.11603        0.14294
C          4.22650       -2.14938        0.56190
N          3.49508       -2.98330        0.90009
C          6.52940       -1.32042        0.00426
C          7.18438       -2.56685        0.24705
N          7.72152       -3.57464        0.44132
C          7.18631       -0.18494       -0.38275
H          8.24740       -0.07246       -0.55500
S          6.11299        1.12980       -0.58296
C         -3.72401       -0.16117       -0.07251
C         -3.47144       -1.60091       -0.35172
O         -2.44159       -2.20778       -0.51967
N         -4.75284       -2.16629       -0.35851
O         -4.95911       -3.45039       -0.74905
C         -4.97405       -4.32901        0.38117
C         -5.82058       -1.26924       -0.15959
O         -6.98836       -1.55417       -0.15098
C         -5.12519        0.02693        0.04337
C         -5.48881        1.30810        0.29725
H         -6.47923        1.72292        0.42624
S         -4.09962        2.31830        0.39190
H          2.20961       -0.87618        0.05409
H          3.46205        1.91146       -0.25211
H         -5.14673       -5.31856       -0.04230
H         -5.78855       -4.06298        1.06125
H         -4.00959       -4.30520        0.89677
