46
COMP67_130003.log	Energy: -1575116.9053433
C         -2.34525       -0.64203       -0.21336
C         -0.92936       -0.85627        0.02269
C         -0.30461       -1.87165        0.72791
C         -0.95707       -2.96191        1.37299
N         -1.48721       -3.84923        1.89745
C          1.09796       -1.68893        0.77455
F          1.88289       -2.55323        1.41471
C          1.56199       -0.57091        0.12729
S          0.21999        0.29018       -0.54725
C          2.91106       -0.06518       -0.04270
C          4.02099       -0.68316        0.40430
C          5.37187       -0.18155        0.23050
C          5.83459        0.94936       -0.38800
F          5.04814        1.84876       -0.97501
C          7.25072        1.10979       -0.36703
C          7.93431        2.21442       -0.95680
N          8.48975        3.11119       -1.43597
C          7.86223        0.07030        0.28535
H          8.92209       -0.06349        0.44793
S          6.72918       -1.07365        0.85905
C         -3.02779        0.53507       -0.17776
C         -2.83765        1.96348        0.09271
O         -1.84434        2.62625        0.24740
N         -4.20493        2.45668        0.10641
C         -4.67279        3.76715        0.30759
O         -5.84930        4.03633        0.27340
O         -3.68121        4.61060        0.53280
C         -4.07982        5.96787        0.74975
C         -5.11314        1.42020       -0.12264
H         -6.17205        1.63369       -0.10827
C         -4.42968        0.27370       -0.30808
C         -4.63341       -1.16331       -0.47778
O         -5.62065       -1.81510       -0.68460
N         -3.27539       -1.68499       -0.39444
C         -2.90798       -2.97852       -0.84755
O         -1.89632       -3.19157       -1.46804
O         -3.80807       -3.86503       -0.47665
C         -3.51494       -5.21720       -0.84376
H          2.99927        0.87841       -0.57112
H          3.93113       -1.62730        0.93167
H         -3.15355        6.50645        0.94127
H         -4.75248        6.03418        1.60733
H         -4.58057        6.36271       -0.13677
H         -4.38419       -5.79101       -0.52804
H         -2.61840       -5.55116       -0.31739
H         -3.36685       -5.29819       -1.92247
