40
COMP72_300000.log	Energy: -1692135.2584025
C          0.46391        1.35785        0.28286
C         -0.81497        0.69800        0.53119
C         -1.12295       -0.21750        1.51283
C         -0.17094       -0.68635        2.46873
N          0.59263       -1.06085        3.25593
C         -2.48051       -0.64705        1.47845
H         -2.88738       -1.38484        2.15962
C         -3.19848       -0.04907        0.48024
S         -2.20879        1.05242       -0.42560
C         -4.60161       -0.23795        0.13724
S         -5.78095       -0.56664        1.37345
C         -7.04959       -0.65541        0.22762
H         -8.06468       -0.86686        0.53313
C         -6.59482       -0.42423       -1.04476
C         -7.44392       -0.43376       -2.19543
N         -8.12752       -0.43929       -3.13132
C         -5.18671       -0.18625       -1.09714
H         -4.64479       -0.01177       -2.01892
C          1.70415        0.80984        0.04825
C          2.00638       -0.64087       -0.12276
O          1.13696       -1.49687       -0.11671
C          3.43507       -0.95107       -0.31848
C          3.92916       -2.22827       -0.40537
C          3.19851       -3.53125       -0.32107
S          5.64394       -2.18103       -0.62508
C          5.71501       -0.45332       -0.60553
C          7.01453        0.27066       -0.76725
C          4.45599        0.06140       -0.43119
C          4.15029        1.49976       -0.35680
O          4.98480        2.38152       -0.48600
C          2.71985        1.81037       -0.10065
C          2.23777        3.08193        0.01028
H          2.80784        3.99740       -0.07114
S          0.55471        3.09347        0.31478
H          2.63141       -3.58459        0.61255
H          3.88809       -4.37820       -0.36829
H          2.47341       -3.61555       -1.13527
H          7.85721       -0.42469       -0.80206
H          7.16243        0.97250        0.05767
H          7.00733        0.86421       -1.68640
