38
COMP29_000320.log	Energy: -1439207.7397912
C         -2.08560       -0.22803        0.03760
C         -0.62945       -0.29498        0.02274
C          0.23373        0.70922        0.42133
C          1.57810        0.37480        0.20328
C          1.73690       -0.87764       -0.34238
S          0.25377       -1.67406       -0.60862
C          3.15292       -1.16472       -0.48035
C          3.87893       -0.08912       -0.03467
C          2.94221        1.01915        0.45609
O          3.21998        2.14918       -0.32262
C          2.30526        3.22053       -0.17630
O          3.00352        1.29822        1.82645
C          4.26945        1.72020        2.29876
C          5.27525       -0.25982       -0.20410
C          5.56624       -1.47820       -0.75509
H          6.54085       -1.88838       -0.98108
S          4.14957       -2.41742       -1.09316
C         -2.73628        1.03217       -0.24202
N         -2.12018        2.17707       -0.53736
S         -3.27978        3.28618       -0.77951
N         -4.60482        2.38061       -0.53254
C         -4.16968        1.15324       -0.24699
C         -4.99589        0.02932        0.01638
H         -6.07463        0.12378        0.00657
C         -4.37671       -1.15997        0.27363
C         -5.19181       -2.31238        0.54505
N         -5.87748       -3.22125        0.75790
C         -2.93366       -1.29427        0.29662
C         -2.42008       -2.58633        0.64783
N         -2.04874       -3.64315        0.94613
H         -0.11129        1.63686        0.85598
H          2.76700        4.08442       -0.65732
H          2.12154        3.44659        0.88031
H          1.35231        2.99923       -0.67347
H          4.68897        2.50991        1.66526
H          4.97295        0.87966        2.34896
H          4.10702        2.10959        3.30508
H          6.02969        0.47180        0.05636
