34
COMP26_000010.log	Energy: -777261.4396796
C         -2.01492        0.91987        0.17044
C         -0.54557        0.80165        0.02799
C          0.14064       -0.32812        0.49611
C          1.51873       -0.38156        0.38349
C          2.46663       -1.47552        0.81857
H          2.40519       -1.66346        1.89769
H          2.24784       -2.42630        0.31684
C          3.81532       -0.92324        0.41710
C          5.07544       -1.48361        0.56387
C          6.18721       -0.77354        0.10988
H          7.17932       -1.20154        0.21903
C          6.03623        0.48091       -0.48280
C          4.77299        1.04741       -0.63190
C          3.66444        0.33877       -0.17890
C          2.23505        0.67562       -0.19769
C          1.56425        1.79631       -0.67446
C          0.18016        1.84962       -0.55797
C         -2.90071       -0.18900       -0.06900
N         -2.54397       -1.42139       -0.43736
S         -3.91690       -2.27943       -0.58825
N         -5.01607       -1.14392       -0.20267
C         -4.32984       -0.03013        0.06141
C         -4.89037        1.22491        0.43501
H         -5.96476        1.32741        0.53422
C         -4.02817        2.25595        0.65821
H         -4.41370        3.22770        0.95127
C         -2.61243        2.10131        0.52943
H         -1.98332        2.95904        0.74884
H         -0.40923       -1.14983        0.94256
H          5.19926       -2.45976        1.02533
H          6.91259        1.01950       -0.83115
H          4.65841        2.02381       -1.09452
H          2.10362        2.61675       -1.13935
H         -0.35494        2.70920       -0.95136
