60
COMP81_100020.log	Energy: -1607116.0853291
C         -0.01886        0.03954        0.07796
C         -1.48544        0.09427        0.07416
C         -2.37154       -0.89728       -0.20151
F         -2.00239       -2.14572       -0.52147
C         -3.76021       -0.53324       -0.14231
C         -4.91073       -1.29282       -0.38693
O         -4.87734       -2.60670       -0.74797
C         -4.66328       -3.51020        0.33162
C         -6.13631       -0.64645       -0.28312
S         -7.69050       -1.40577       -0.54130
C         -8.50730        0.09184       -0.18111
H         -9.58556        0.15775       -0.20376
C         -7.64829        1.09020        0.10539
F         -8.03734        2.33297        0.40454
C         -6.25572        0.72237        0.05481
C         -5.10441        1.48089        0.29877
O         -5.13673        2.79405        0.66085
C         -5.36013        3.69939       -0.41619
C         -3.87988        0.83560        0.19145
S         -2.32951        1.59350        0.44847
C          0.73685        1.19402       -0.15543
C          2.12875        1.17638       -0.14557
C          2.80797       -0.01606        0.10089
C          4.22245       -0.43622        0.12752
C          4.17136       -1.93645        0.37808
O          5.07850       -2.73676        0.51011
N          2.84441       -2.27812        0.49286
C          2.38724       -3.62057        0.75058
C          2.02637       -1.17137        0.31172
C          0.64639       -1.17330        0.31648
C          5.38858        0.25933        0.00327
C          5.45207        1.78038        0.02334
O          4.55614        2.59547        0.14561
N          6.77782        2.12623       -0.07425
C          7.24765        3.48877       -0.07594
C          7.58184        0.99851       -0.19032
C          8.95512        0.98172       -0.35860
C          9.57502       -0.26044       -0.49364
H         10.65177       -0.30784       -0.62650
C          8.82533       -1.43138       -0.46696
C          7.44172       -1.39740       -0.29103
C          6.79442       -0.17096       -0.13609
H         -4.71809       -4.51112       -0.09790
H         -5.44057       -3.39400        1.09625
H         -3.67701       -3.35957        0.78172
H         -5.30347        4.69939        0.01502
H         -6.34951        3.54818       -0.85856
H         -4.58743        3.58521       -1.18571
H          0.23414        2.13335       -0.36397
H          2.67844        2.08794       -0.31844
H          3.26891       -4.25802        0.82353
H          1.74666       -3.97301       -0.06490
H          1.82753       -3.66390        1.69100
H          0.09436       -2.08613        0.49898
H          6.37930        4.13673        0.04691
H          7.74759        3.72385       -1.02193
H          7.94736        3.65551        0.74984
H          9.52712        1.90320       -0.39138
H          9.31837       -2.39134       -0.58073
H          6.87527       -2.31458       -0.25887
