29
COMP22_300100.log	Energy: -1396135.3583444
C          1.89279        0.48907        0.10232
C          0.53851       -0.04074        0.29374
C          0.16735       -1.17073        0.99089
C          1.08458       -1.98397        1.72625
N          1.81295       -2.63898        2.34544
C         -1.23730       -1.41021        0.96924
H         -1.70786       -2.23372        1.49282
C         -1.92166       -0.46756        0.25352
S         -0.84237        0.71484       -0.41252
C         -3.35719       -0.37184        0.02269
S         -4.33222       -1.80489       -0.11991
C         -5.75945       -0.88638       -0.34329
H         -6.71761       -1.36819       -0.47810
C         -5.49909        0.45965       -0.32941
C         -6.51042        1.45635       -0.49896
N         -7.32503        2.26927       -0.63599
C         -4.11767        0.75575       -0.11656
H         -3.72482        1.76309       -0.04743
C          2.95815       -0.34013       -0.39096
N          2.84160       -1.61145       -0.76028
S          4.32175       -2.09159       -1.22947
N          5.15977       -0.71599       -1.00153
C          4.29266        0.18072       -0.53512
C          4.58533        1.53723       -0.21227
H          5.58266        1.94439       -0.32085
C          3.55474        2.29845        0.22985
F          3.72624        3.57736        0.55400
C          2.22621        1.78257        0.38693
F          1.31851        2.63945        0.84793
