30
COMP33_000020.log	Energy: -683314.5625083
C         -0.66552        0.10082       -0.10801
C          0.76895       -0.27193       -0.02605
C          1.75599        0.65802       -0.37073
C          3.10271        0.31051       -0.29967
O          4.12952        1.14073       -0.61363
C          3.81834        2.45614       -1.01382
C          3.46411       -0.97651        0.11293
H          4.51766       -1.23160        0.15533
C          2.48767       -1.89355        0.45983
C          1.13808       -1.54931        0.39528
O          0.18388       -2.47655        0.73081
C         -0.23345       -2.39864        2.08282
C         -1.54860       -0.59198       -0.93573
F         -1.10883       -1.58792       -1.69993
C         -2.89334       -0.24788       -0.99547
F         -3.70394       -0.93627       -1.80225
C         -3.39587        0.79965       -0.24146
H         -4.44441        1.06551       -0.29436
C         -2.52667        1.49998        0.57723
F         -2.97521        2.51492        1.32055
C         -1.18268        1.15532        0.64320
F         -0.38280        1.84898        1.45940
H          1.44673        1.64437       -0.69568
H          4.77414        2.94806       -1.19706
H          3.27687        2.99838       -0.22780
H          3.22398        2.46698       -1.93680
H          2.75348       -2.89609        0.77961
H         -0.98737       -3.17563        2.22120
H         -0.67561       -1.41912        2.30818
H          0.60597       -2.57544        2.76794
