41
COMP66_000010.log	Energy: -671120.9520520
C          1.70797       -0.77129        0.07702
C          0.24643       -0.76071       -0.00002
C         -0.43556        0.37533        0.46781
C         -1.81248        0.42525        0.36575
C         -2.75778        1.52328        0.79214
H         -2.69239        1.72182        1.86891
H         -2.53592        2.46769        0.28041
C         -4.10681        0.96701        0.39945
C         -5.36687        1.52935        0.54185
C         -6.47852        0.81480        0.09593
H         -7.47033        1.24429        0.20163
C         -6.32982       -0.44592       -0.48503
C         -5.06772       -1.01455       -0.63001
C         -3.95878       -0.30105       -0.18452
C         -2.53041       -0.63694       -0.20625
C         -1.86193       -1.75696       -0.69048
C         -0.47855       -1.81304       -0.58392
C          2.56096        0.30219        0.01390
C          2.59632        1.74453       -0.17849
O          1.73401        2.60602       -0.23048
N          3.99024        2.02399       -0.27121
C          4.50163        3.36261       -0.45487
C          4.74279        0.87589       -0.14177
H          5.82229        0.91942       -0.20614
C          3.91042       -0.17908        0.04470
C          3.87542       -1.62681        0.18627
O          4.74161       -2.46852        0.30789
N          2.47936       -1.92589        0.19024
C          2.04111       -3.26769        0.51682
H          0.12196        1.21150        0.87650
H         -5.49000        2.51009        0.99326
H         -7.20718       -0.98659       -0.82719
H         -4.95402       -1.99519       -1.08371
H         -2.40403       -2.57477       -1.15614
H          0.04426       -2.66916       -0.99384
H          3.64099        4.03392       -0.45982
H          5.03262        3.45458       -1.40776
H          5.17246        3.64283        0.36317
H          2.86748       -3.75808        1.03493
H          1.80937       -3.85134       -0.38009
H          1.16338       -3.23485        1.16554
