40
COMP72_410000.log	Energy: -1795286.3148593
C          0.52900        0.96262        0.49779
C         -0.71870        0.22439        0.44163
C         -1.07672       -0.96008        1.05470
O         -0.30906       -1.79363        1.75546
C         -2.47159       -1.21423        0.91652
F         -3.02239       -2.31308        1.43487
C         -3.18257       -0.27300        0.23119
S         -2.11113        0.98945       -0.30267
C         -4.59452       -0.28522       -0.08624
S         -5.66250       -1.57370        0.40001
C         -7.02499       -0.80406       -0.33667
H         -7.99947       -1.27035       -0.29045
C         -6.69191        0.37828       -0.92661
O         -7.47745        1.25440       -1.59434
C         -5.30338        0.65907       -0.77323
F         -4.75922        1.77005       -1.27487
C          1.86328        0.60072        0.35208
C          2.38281       -0.73828        0.04104
O          1.66756       -1.74460        0.05287
C          3.82307       -0.81812       -0.28569
C          4.47993       -1.95521       -0.69312
C          3.97363       -3.33852       -0.96471
S          6.16495       -1.61706       -0.91470
C          6.00942        0.04288       -0.45804
C          7.19560        0.95472       -0.43866
C          4.70291        0.32073       -0.15688
C          4.21685        1.64940        0.24923
O          4.94236        2.62259        0.38546
C          2.75099        1.73050        0.44780
C          2.10705        2.90648        0.67143
H          2.56424        3.88184        0.76558
S          0.41315        2.68349        0.77507
H          0.54733       -1.85693        1.27082
H         -8.38185        0.92002       -1.60827
H          2.90477       -3.38863       -0.76767
H          4.48488       -4.06987       -0.32954
H          4.15769       -3.61764       -2.00787
H          8.11420        0.42062       -0.69537
H          7.30940        1.40863        0.54914
H          7.05380        1.77623       -1.14678
