32
COMP51_000410.log	Energy: -1547971.0800013
C         -0.83395        0.56073       -0.07190
C          0.60897        0.41132       -0.00659
C          1.36100       -0.65319       -0.38700
H          0.93466       -1.54803       -0.82700
C          2.77407       -0.46415       -0.19091
C          3.81506       -1.34646       -0.48342
H          3.60673       -2.32628       -0.90174
C          5.11365       -0.93006       -0.22618
S          6.58018       -1.84437       -0.50186
C          7.54975       -0.52785        0.10210
H          8.62583       -0.63621        0.13229
C          6.82396        0.54262        0.49174
H          7.25872        1.45010        0.89418
C          5.40562        0.34867        0.31685
C          4.36351        1.23221        0.60836
H          4.57047        2.21249        1.02634
C          3.06808        0.81347        0.35216
S          1.59948        1.71766        0.65463
C         -1.57401        1.68020       -0.39731
O         -1.11267        2.90059       -0.71868
N         -2.92300        1.52831       -0.40264
C         -3.24348        0.30266       -0.09138
S         -1.91978       -0.76092        0.24114
C         -4.61686       -0.16749       -0.02135
S         -5.94601        0.89361       -0.35049
C         -7.01355       -0.42634       -0.04659
H         -8.08605       -0.31476       -0.11768
C         -6.28867       -1.54406        0.27266
O         -6.75348       -2.77274        0.57513
N         -4.93658       -1.39422        0.28582
H         -0.14805        2.87529       -0.79875
H         -7.71689       -2.76346        0.53634
