55
COMP96_000012.log	Energy: -1051834.2030597
C         -0.07329       -0.26536       -0.35924
C          1.39901       -0.47594       -0.41126
C          2.21473       -0.03557        0.63740
C          3.56661       -0.31586        0.60555
C          4.64116        0.05227        1.60198
H          4.72443        1.13898        1.72622
H          4.44128       -0.37017        2.59458
C          5.88474       -0.54022        0.97939
C          7.19238       -0.52200        1.44103
C          8.18366       -1.14560        0.68358
H          9.21178       -1.13898        1.03336
C          7.86740       -1.77831       -0.51950
C          6.55591       -1.79802       -0.98681
C          5.56728       -1.17575       -0.23085
C          4.12383       -1.03550       -0.46465
C          3.31878       -1.48316       -1.50457
C          1.95481       -1.20799       -1.46462
C         -0.86954       -1.43944       -0.32282
C         -2.23284       -1.38848       -0.19745
C         -3.00410       -2.66101       -0.15890
O         -2.49641       -3.75645       -0.23427
N         -4.38793       -2.50394       -0.01313
O         -5.13119       -3.64903       -0.10514
C         -5.33191       -4.23378        1.18276
C         -5.11000       -1.31342        0.13955
O         -6.30814       -1.32040        0.30856
C         -4.29194       -0.07092        0.08935
C         -4.92063        1.14678        0.21410
H         -5.99636        1.17364        0.34923
C         -4.16541        2.32986        0.16451
C         -2.80022        2.28195       -0.01323
C         -2.05547        3.56502       -0.06849
O         -2.56988        4.65061        0.08254
N         -0.68964        3.42580       -0.31157
O         -0.01806        4.58871       -0.57845
C          0.58907        5.10683        0.60407
C          0.05632        2.24558       -0.48846
O          1.22853        2.31599       -0.77036
C         -0.70741        0.97222       -0.30213
C         -2.12198        1.04331       -0.13967
C         -2.88955       -0.14208       -0.08252
H          1.78136        0.52392        1.46194
H          7.44411       -0.03062        2.37711
H          8.65200       -2.25897       -1.09621
H          6.31391       -2.29025       -1.92464
H          3.73762       -2.03954       -2.33789
H          1.31271       -1.55067       -2.27137
H         -0.38557       -2.40916       -0.37835
H         -5.89523       -5.14612        0.98473
H         -5.91716       -3.56541        1.82115
H         -4.37270       -4.48424        1.64523
H         -4.64027        3.29991        0.26370
H          1.08233        6.02401        0.28084
H          1.33193        4.40446        0.99466
H         -0.17039        5.33824        1.35690
