26
COMP64_400001.log	Energy: -1046265.7743618
C          1.31508        0.53388       -0.01781
C         -0.08358        0.29397        0.05154
C         -0.76816       -0.91691       -0.12131
O         -0.31867       -2.13197       -0.33385
C         -2.17771       -0.69329       -0.11302
S         -3.54192       -1.74337       -0.26058
C         -4.61294       -0.38410       -0.06692
H         -5.68361       -0.53831       -0.09770
C         -3.95876        0.80269        0.10650
O         -4.48043        2.03822        0.28634
C         -2.54661        0.61818        0.07195
S         -1.18924        1.66693        0.25918
C          2.40509       -0.32571        0.01878
C          2.76283       -1.69622        0.22307
O          2.08726       -2.72559        0.38253
N          4.15999       -1.67749        0.21498
H          4.70493       -2.51749        0.33213
C          4.66675       -0.39785        0.04247
H          5.73140       -0.21498        0.03990
C          3.61156        0.44405       -0.08330
C          3.24711        1.85652       -0.21085
O          3.88788        2.87092       -0.35492
N          1.82681        1.81583       -0.13406
H          1.27789        2.64402       -0.31344
H          0.63136       -2.32803       -0.04160
H         -5.44341        1.98545        0.28931
