36
COMP53_000230.log	Energy: -1720947.7299810
C          0.37387        0.27222        0.21129
C          1.80336        0.15796       -0.14301
C          2.44283       -1.06311        0.06600
C          3.80069       -1.21293       -0.20884
C          4.51430       -2.50759        0.00446
O          5.69359       -2.67181       -0.20795
O          3.70023       -3.46906        0.45877
C          4.31922       -4.73444        0.69136
C          4.53578       -0.12978       -0.68509
H          5.59347       -0.25965       -0.88665
C          3.91005        1.09051       -0.89296
C          2.54601        1.24369       -0.64037
C          1.87641        2.54744       -0.95050
O          0.70971        2.67386       -1.23858
O          2.74020        3.56997       -0.89587
C          2.18268        4.85015       -1.19696
C         -0.20583        0.96227        1.24015
Cl         0.68205        1.92150        2.37295
N         -1.55397        0.88350        1.36161
C         -2.03742        0.12473        0.41767
S         -0.86915       -0.53760       -0.67488
C         -3.45614       -0.16136        0.27829
S         -4.62221        0.52680        1.36428
C         -5.85699       -0.29785        0.49536
H         -6.90116       -0.22240        0.75970
C         -5.29530       -1.00920       -0.52244
Cl        -6.19526       -1.97961       -1.63484
N         -3.94357       -0.93664       -0.65026
H          1.87897       -1.90045        0.46163
H          3.52384       -5.38909        1.04534
H          5.10488       -4.64181        1.44491
H          4.75434       -5.12287       -0.23236
H          4.47543        1.93716       -1.26420
H          3.01115        5.55396       -1.12799
H          1.40354        5.10209       -0.47392
H          1.75347        4.85567       -2.20155
