34
COMP41_400010.log	Energy: -1382455.8219125
C          1.94427        0.87872       -0.10026
C          0.53199        0.61244        0.02994
C         -0.16153       -0.55086       -0.21800
O          0.30384       -1.74378       -0.58040
C         -1.59516       -0.38054       -0.12962
C         -2.56038       -1.36489       -0.33173
H         -2.26088       -2.37701       -0.58172
C         -3.88950       -0.99235       -0.19858
S         -5.29579       -2.01632       -0.39830
C         -6.35852       -0.67405       -0.03826
H         -7.43004       -0.82622       -0.03834
C         -5.69187        0.47605        0.21707
O         -6.20365        1.69269        0.52818
C         -4.25699        0.33348        0.13498
C         -3.28948        1.31624        0.34224
H         -3.58091        2.32905        0.59866
C         -1.96257        0.94173        0.19985
S         -0.55703        1.95642        0.42446
C          3.06178        0.07963       -0.02116
C          3.38691       -1.31772        0.29617
O          2.64549       -2.26369        0.53265
N          4.77211       -1.40696        0.28358
C          5.50917       -2.62645        0.53941
C          5.40515       -0.18805       -0.02702
O          6.60019       -0.03915       -0.09961
C          4.29055        0.77027       -0.21556
C          4.15449        2.09562       -0.44699
H          4.91799        2.84475       -0.60396
S          2.47720        2.51981       -0.45048
H          1.18099       -1.94694       -0.17018
H         -7.16650        1.64041        0.54638
H          4.78639       -3.41181        0.76086
H          6.18125       -2.48651        1.38927
H          6.10001       -2.89980       -0.33831
