33
COMP27_120300.log	Energy: -2021457.7680462
C         -3.03626        0.27862        0.03866
C         -1.62959       -0.05787       -0.21886
C         -1.14961       -1.07128       -1.00185
Cl        -2.11993       -2.15068       -1.92812
C          0.26765       -1.13139       -1.00497
F          0.92174       -2.04572       -1.71926
C          0.88167       -0.18525       -0.22728
S         -0.32863        0.80873        0.52265
C          2.28812        0.06710        0.02878
C          3.30247       -0.61499       -0.53601
C          4.70939       -0.37014       -0.27924
C          5.32183        0.52590        0.55677
F          4.66547        1.38704        1.33291
C          6.74260        0.47104        0.54131
Cl         7.72309        1.50414        1.51539
C          7.21388       -0.47604       -0.31568
H          8.24598       -0.72208       -0.51824
S          5.92794       -1.30056       -1.10323
C         -3.86282       -0.62776        0.77726
N         -3.46643       -1.79241        1.29131
S         -4.76596       -2.43228        2.01943
N         -5.87122       -1.27938        1.73119
C         -5.24292       -0.32973        1.03398
C         -5.81582        0.88443        0.57103
H         -6.85695        1.11013        0.76777
C         -5.01408        1.74845       -0.12324
C         -5.56887        2.98331       -0.60302
N         -6.03758        3.97359       -0.97859
C         -3.62349        1.44612       -0.39612
C         -2.86024        2.38394       -1.17036
N         -2.25243        3.14291       -1.79983
H          2.50579        0.86746        0.72837
H          3.08297       -1.41015       -1.24131
