56
COMP91_400000.log	Energy: -1527731.5826289
C         -0.90224        0.05737       -0.05376
C          0.56539        0.13395       -0.14820
C          1.46532        0.77626        0.65902
O          1.12955        1.66970        1.60617
C          2.84499        0.37276        0.44215
C          4.01133        0.81267        1.08746
C          4.05555        1.83117        2.19547
C          5.19939        0.23611        0.64184
S          6.77231        0.62715        1.30960
C          7.54084       -0.48818        0.21449
H          8.61527       -0.61687        0.24138
C          6.66832       -1.11865       -0.60515
O          6.99193       -2.03763       -1.55395
C          5.28468       -0.72804       -0.39392
C          4.11861       -1.16291       -1.04229
C          4.07169       -2.17652       -2.15534
C          2.93205       -0.59635       -0.58441
S          1.36187       -0.98525       -1.25144
C         -1.40677       -1.26973        0.11051
C         -2.74015       -1.54520        0.21405
C         -3.17929       -2.95229        0.43313
O         -2.38504       -3.86474        0.53697
N         -4.55818       -3.16681        0.51215
C         -5.04379       -4.52761        0.73255
C         -5.53471       -2.17631        0.40037
O         -6.71315       -2.45982        0.48740
C         -5.06780       -0.78233        0.17229
C         -5.99270        0.22803        0.02095
H         -7.04941       -0.00863        0.07660
C         -5.55211        1.53653       -0.22077
C         -4.20294        1.82641       -0.27770
C         -3.79600        3.21487       -0.58618
O         -4.59627        4.10523       -0.79193
N         -2.41810        3.44881       -0.62814
C         -1.95859        4.81545       -0.87705
C         -1.43919        2.51906       -0.30630
O         -0.28492        2.92178       -0.19184
C         -1.83252        1.10234       -0.13156
C         -3.23140        0.81571       -0.09151
C         -3.68833       -0.50411        0.10466
H          0.51906        2.29721        1.16198
H          3.06931        2.23003        2.41970
H          4.71702        2.66153        1.91904
H          4.46523        1.38025        3.10787
H          7.94738       -2.17013       -1.54599
H          5.05837       -2.55761       -2.40766
H          3.63256       -1.73106       -3.05674
H          3.43634       -3.02430       -1.86994
H         -0.70415       -2.09164        0.19242
H         -4.18360       -5.19265        0.74288
H         -5.73299       -4.80436       -0.06703
H         -5.57562       -4.58131        1.68482
H         -6.26031        2.34300       -0.37652
H         -2.81813        5.39638       -1.20225
H         -1.18572        4.80311       -1.64602
H         -1.53819        5.24369        0.03567
