36
COMP47_420000.log	Energy: -1959954.8056214
C          3.15310        0.69323        0.00894
C          1.75504        1.07930       -0.07981
C          1.18270        2.32999       -0.18216
Cl         2.01569        3.85292       -0.24489
C         -0.23745        2.32844       -0.24239
O         -1.01434        3.42620       -0.34067
C         -0.76254        1.06081       -0.18965
S          0.49383       -0.12537       -0.05576
C         -2.17204        0.73640       -0.24510
C         -2.69058       -0.50845       -0.27313
C         -4.11144       -0.80747       -0.26314
C         -5.12429       -0.10734        0.35164
O         -5.00371        1.00950        1.09777
C         -6.40464       -0.71387        0.15953
Cl        -7.85402       -0.04420        0.82183
C         -6.35416       -1.85649       -0.57580
H         -7.18215       -2.49019       -0.85854
S         -4.74395       -2.22962       -1.04970
C          3.72541       -0.55715        0.08090
C          3.29765       -1.98202        0.09621
O          2.19123       -2.47144        0.04729
N          4.48394       -2.72279        0.18393
C          4.52129       -4.16863        0.22560
C          5.63933       -1.93635        0.22947
O          6.76660       -2.36335        0.30608
C          5.14121       -0.54085        0.16281
C          5.68633        0.69753        0.15801
H          6.72741        0.98505        0.20974
S          4.44540        1.88850        0.04901
H         -0.45528        4.21490       -0.37709
H         -2.82702        1.60287       -0.31377
H         -2.01762       -1.36586       -0.29827
H         -4.06985        1.12943        1.32441
H          3.49379       -4.52834        0.16466
H          4.98060       -4.50810        1.15725
H          5.10181       -4.55428       -0.61601
