28
COMP29_000110.log	Energy: -1304318.1891807
C          1.63202        0.33904        0.00962
C          0.20275        0.04073        0.01513
C         -0.39050       -1.20681        0.04366
C         -1.79736       -1.13890        0.03435
C         -2.27065        0.15455       -0.00187
S         -1.01646        1.31666       -0.02280
C         -3.71551        0.12601       -0.00624
C         -4.13832       -1.18443        0.02653
C         -2.94925       -2.11719        0.05673
H         -2.93374       -2.79315       -0.80671
H         -2.93955       -2.74254        0.95773
C         -5.55288       -1.30276        0.02012
C         -6.16148       -0.07930       -0.01683
H         -7.22164        0.13338       -0.02910
S         -5.02736        1.23549       -0.04630
C          2.64742       -0.69622       -0.00434
N          2.42883       -2.00826       -0.01615
S          3.88271       -2.73963       -0.03178
N          4.85242       -1.43475       -0.02372
C          4.05699       -0.36858       -0.00933
C          4.50637        0.98169        0.00024
H          5.55900        1.23220       -0.00315
C          3.53906        1.92785        0.01289
F          3.83975        3.22457        0.02312
C          2.14305        1.61216        0.01737
F          1.33230        2.67562        0.02988
H          0.18684       -2.12006        0.06723
H         -6.10065       -2.23760        0.04197
