40
COMP72_100002.log	Energy: -1795254.9254990
C          0.16128       -1.48847        0.32054
C          1.41066       -0.76169        0.48362
C          1.71215        0.20628        1.40025
F          0.85613        0.62238        2.32449
C          3.03093        0.71434        1.32723
H          3.41878        1.46468        2.00497
C          3.75402        0.11167        0.33300
S          2.79915       -1.05913       -0.52231
C          5.13534        0.35764       -0.05045
S          5.84347        1.93169        0.16093
C          7.35878        1.40598       -0.47166
H          8.20542        2.07177       -0.54715
C          7.28844        0.09760       -0.83450
F          8.31299       -0.57825       -1.35857
C          6.03131       -0.51902       -0.60137
H          5.82627       -1.56221       -0.80788
C         -1.12515       -1.01386        0.19043
C         -1.51739        0.42042        0.08985
O         -0.70981        1.33201        0.12471
C         -2.96783        0.63818       -0.07765
C         -3.54749        1.87275       -0.17539
O         -2.91284        3.03993       -0.14065
C         -3.66901        4.23230       -0.24857
S         -5.29683        1.76848       -0.35909
C         -5.21887        0.01045       -0.30194
O         -6.30610       -0.74865       -0.39278
C         -7.56055       -0.11995       -0.58464
C         -3.93687       -0.43876       -0.15119
C         -3.55014       -1.85588       -0.08277
O         -4.33357       -2.78769       -0.15561
C         -2.08832       -2.07246        0.07989
C         -1.52563       -3.31407        0.11482
H         -2.04535       -4.25879        0.03372
S          0.17407       -3.22893        0.30206
H         -2.94672        5.04522       -0.18651
H         -4.38991        4.31851        0.57371
H         -4.19272        4.28093       -1.21121
H         -8.29214       -0.92556       -0.63096
H         -7.57754        0.44518       -1.52451
H         -7.80121        0.54399        0.25484
