30
COMP62_400001.log	Energy: -1094827.1293266
C         -1.99230        0.44781        0.02760
C         -0.68085       -0.10015        0.02800
C         -0.26489       -1.40761        0.31221
O         -0.98417       -2.47169        0.60419
C          1.15686       -1.52266        0.34663
H          1.64500       -2.46044        0.58260
C          1.81277       -0.35500        0.08296
S          0.70690        0.94100       -0.24349
C          3.24587       -0.12670        0.01380
S          4.33870       -1.44374       -0.28285
C          5.70645       -0.39408       -0.19580
H          6.70566       -0.78702       -0.32592
C          5.32993        0.89947        0.03718
O          6.13443        1.98307        0.16245
C          3.91946        1.05569        0.15915
H          3.44948        2.00955        0.36765
C         -3.24378       -0.14885        0.00146
C         -3.89164       -1.41910       -0.14324
O         -3.45718       -2.57774       -0.20889
N         -5.25004       -1.08973       -0.20444
H         -5.96620       -1.79371       -0.29204
C         -5.46163        0.27908       -0.12987
H         -6.45704        0.69417       -0.19281
C         -4.25033        0.87330        0.00194
C         -3.58323        2.17605        0.05508
O         -3.98676        3.31443        0.10512
N         -2.20701        1.81801        0.04149
H         -1.49243        2.51539        0.18981
H         -1.93615       -2.47118        0.28035
H          7.05476        1.71117        0.06693
