28
COMP32_130000.log	Energy: -1327355.1372385
C         -2.43833        0.06940       -0.04129
C         -1.02147       -0.28516        0.09174
C         -0.50801       -1.41981        0.64857
F         -1.24703       -2.36943        1.20047
C          0.91202       -1.50630        0.62336
C          1.62253       -2.59982        1.19837
N          2.18683       -3.49734        1.66663
C          1.48014       -0.39406        0.03007
S          0.26741        0.71668       -0.48866
C          2.89216       -0.12133       -0.19723
S          3.97023       -1.37257       -0.70532
C          5.31297       -0.30159       -0.76612
H          6.29876       -0.64602       -1.04148
C          4.94042        0.95646       -0.41772
F          5.76210        1.99540       -0.36705
C          3.55786        1.08611       -0.08958
C          2.98178        2.32016        0.33112
N          2.52756        3.33233        0.66659
C         -2.92608        1.31959        0.34608
F         -2.09135        2.23301        0.84122
C         -4.27310        1.63261        0.22519
F         -4.69358        2.83660        0.60874
C         -5.17265        0.70839       -0.27947
H         -6.22391        0.95259       -0.37082
C         -4.70092       -0.53389       -0.66901
F         -5.53885       -1.44181       -1.16646
C         -3.35316       -0.85044       -0.56021
F         -2.93739       -2.04702       -0.96802
