32
COMP37_230000.log	Energy: -1828187.5254308
C         -3.48686       -0.33480        0.06870
C         -2.12762        0.20443       -0.08195
C         -1.77310        1.49043       -0.41574
C         -2.72305        2.51067       -0.72060
N         -3.50766        3.32305       -0.97854
C         -0.35559        1.67119       -0.45441
Cl         0.36325        3.18600       -0.85683
C          0.35771        0.53678       -0.15820
S         -0.73237       -0.77191        0.18665
C          1.80086        0.39815       -0.12893
C          2.45218       -0.76055        0.07346
C          3.89132       -0.96244        0.11926
C          4.96129       -0.10162        0.17651
Cl         4.86081        1.61962        0.22931
C          6.23115       -0.76556        0.21415
C          7.49064       -0.09525        0.27784
N          8.51942        0.43516        0.32947
C          6.10588       -2.12832        0.18722
H          6.90429       -2.85641        0.20549
S          4.46931       -2.60791        0.11662
C         -3.91288       -1.44593       -0.66226
F         -3.07928       -2.04243       -1.51458
C         -5.20159       -1.94212       -0.52345
F         -5.56758       -3.00111       -1.24350
C         -6.09936       -1.34648        0.34689
H         -7.10468       -1.73533        0.45377
C         -5.68789       -0.24564        1.07919
F         -6.52444        0.34280        1.93051
C         -4.39824        0.25435        0.94868
F         -4.03415        1.30016        1.68400
H          2.34677        1.31934       -0.29575
H          1.87117       -1.67208        0.20951
