35
COMP27_410400.log	Energy: -1517707.8429888
C          2.85514        0.44876        0.14051
C          1.50181       -0.00979        0.45627
C          1.14795       -1.11629        1.16602
F          1.99728       -1.94344        1.78942
C         -0.24811       -1.36686        1.24279
O         -0.78694       -2.41410        1.90800
C         -0.98631       -0.41965        0.58098
S          0.06380        0.77160       -0.13945
C         -2.43025       -0.38944        0.49478
C         -3.17305        0.58691       -0.06409
C         -4.61939        0.53059       -0.20255
C         -5.39944       -0.57193       -0.45325
O         -4.99258       -1.84721       -0.63921
C         -6.78484       -0.23993       -0.55612
F         -7.70290       -1.17496       -0.79653
C         -7.05329        1.07960       -0.39882
H         -8.01929        1.56063       -0.43059
S         -5.60282        1.97106       -0.11935
C          3.83646       -0.46999       -0.37119
N          3.63540       -1.75793       -0.62616
S          5.04584       -2.34915       -1.19224
N          5.96105       -0.99808       -1.14204
C          5.17697       -0.03321       -0.67351
C          5.55374        1.32830       -0.48253
H          6.56285        1.65258       -0.71483
C          4.60284        2.17806       -0.01627
O          4.78719        3.50627        0.21846
C          3.25485        1.75098        0.29866
O          2.39889        2.68000        0.76222
H         -0.06622       -2.95387        2.25909
H         -2.92075       -1.23736        0.97042
H         -2.68133        1.47721       -0.45618
H         -4.03135       -1.84385       -0.75848
H          5.69581        3.76069        0.01783
H          2.86373        3.52922        0.80490
