41
COMP75_000001.log	Energy: -1183157.9347585
C         -0.78085        1.51554        0.09671
C          0.64475        1.19973       -0.11059
C          1.22238        0.10649        0.53161
C          2.57668       -0.13188        0.32811
N          3.36312       -1.15482        0.82706
C          2.90899       -2.23069        1.67264
C          4.66111       -0.96732        0.38632
C          5.80178       -1.72765        0.65033
C          6.99434       -1.32116        0.06781
H          7.89767       -1.89314        0.25827
C          7.06080       -0.18636       -0.75433
C          5.92524        0.56884       -1.00768
C          4.71387        0.18189       -0.43331
C          3.37214        0.71828       -0.47197
C          2.78288        1.81474       -1.09959
C          1.42971        2.04901       -0.91876
C         -1.91918        0.73333        0.06687
C         -1.99602       -0.71541       -0.25947
O         -1.03259       -1.43228       -0.46797
C         -3.37781       -1.26155       -0.31386
C         -3.66735       -2.56101       -0.61701
H         -2.96148       -3.34194       -0.86386
S         -5.36004       -2.85449       -0.56946
C         -5.70041       -1.22693       -0.13612
H         -6.71184       -0.87930        0.02342
C         -4.55440       -0.49215       -0.03546
C         -4.49081        0.94267        0.31315
O         -5.47765        1.61367        0.55818
C         -3.11574        1.49960        0.32396
C         -2.86851        2.82009        0.54985
H         -3.60427        3.58438        0.75922
S         -1.19529        3.16599        0.45806
H          0.61904       -0.53504        1.16044
H          1.85306       -2.42775        1.47389
H          3.03743       -1.99903        2.73665
H          3.46690       -3.14122        1.43818
H          5.76741       -2.60073        1.29438
H          8.01094        0.10164       -1.19287
H          5.97629        1.44963       -1.64154
H          3.37370        2.47496       -1.72742
H          0.95909        2.88772       -1.42276
