30
COMP52_100400.log	Energy: -1624646.7362652
C          0.74519       -0.06264       -0.38006
C         -0.65222        0.32866       -0.35058
C         -1.21139        1.53260       -0.67899
F         -0.48787        2.56740       -1.10402
C         -2.61705        1.61757       -0.52990
H         -3.18578        2.51601       -0.73552
C         -3.15273        0.44006       -0.08314
S         -1.91868       -0.75714        0.17370
C         -4.55006        0.12377        0.16803
S         -5.80917        0.91217       -0.73510
C         -7.04131        0.05742        0.11358
H         -8.08923        0.21676       -0.09191
C         -6.48736       -0.79221        1.01952
F         -7.20164       -1.58490        1.81924
C         -5.06866       -0.76841        1.06806
H         -4.48083       -1.36418        1.75559
C          1.29356       -1.18572       -0.96259
O          0.64085       -2.14411       -1.64259
N          2.63551       -1.33841       -0.83546
C          3.14056       -0.33971       -0.16363
S          2.01566        0.85997        0.37023
C          4.56086       -0.21192        0.12002
S          5.69506       -1.39946       -0.43182
C          6.94949       -0.47662        0.30954
H          7.98300       -0.79001        0.27076
C          6.41610        0.63729        0.90205
O          7.06565        1.60541        1.57882
N          5.06770        0.78290        0.79373
H         -0.28051       -1.87695       -1.76642
H          8.00868        1.40449        1.58903
