34
COMP57_240100.log	Energy: -2249980.5022631
C          2.13235       -0.07328       -0.42604
C          0.76229        0.40358       -0.42924
C          0.33156        1.69049       -0.64021
O          1.08392        2.77026       -0.92488
C         -1.08421        1.81580       -0.53085
Cl        -1.87377        3.33376       -0.76383
C         -1.73121        0.63752       -0.25226
S         -0.58181       -0.65557       -0.09809
C         -3.16059        0.45014       -0.10480
C         -3.76288       -0.74443        0.03673
C         -5.18175       -1.00127        0.20264
C         -6.26770       -0.18928        0.42716
Cl        -6.23538        1.53902        0.60555
C         -7.51478       -0.88275        0.53757
O         -8.70645       -0.29225        0.75930
C         -7.36267       -2.23034        0.39540
H         -8.13944       -2.97919        0.43352
S         -5.71699       -2.65329        0.12929
C          2.67035       -1.16738       -1.05305
F          1.96291       -1.98961       -1.80984
N          3.98431       -1.41858       -0.88982
C          4.51286       -0.50686       -0.11859
S          3.41431        0.69467        0.47717
C          5.92175       -0.47248        0.23131
S          7.03017       -1.67031       -0.35328
C          8.28895       -0.86778        0.50243
H          9.31169       -1.21247        0.49935
C          7.76583        0.21572        1.14182
F          8.47056        1.04858        1.88973
N          6.44225        0.44795        0.99861
H          1.99081        2.49541       -1.11702
H         -3.74002        1.36592       -0.12392
H         -3.14794       -1.64387        0.01793
H         -8.57803        0.66452        0.82341
