37
COMP47_320002.log	Energy: -2028444.2387641
C          3.07510        0.90068        0.33175
C          1.64810        1.13342        0.15451
C          0.97204        2.30159       -0.10321
Cl         1.71301        3.84087       -0.34496
C         -0.44368        2.14508       -0.18202
C         -1.32270        3.23295       -0.45136
N         -2.05298        4.10770       -0.66802
C         -0.84638        0.83465        0.02525
S          0.52110       -0.17650        0.30027
C         -2.15798        0.21039        0.03832
C         -3.33033        0.84367       -0.15897
C         -4.64336        0.22250       -0.13173
C         -5.06011       -1.05078        0.22294
C         -4.19715       -2.08635        0.68310
N         -3.48177       -2.91965        1.05620
C         -6.47678       -1.21728        0.09539
Cl        -7.28158       -2.69738        0.46869
C         -7.11361       -0.09771       -0.34085
H         -8.17185        0.03125       -0.51543
S         -6.00243        1.18334       -0.60615
C          3.81837       -0.20903        0.02833
C          3.60554       -1.52942       -0.62544
O          2.61422       -2.04388       -1.07869
N          4.88045       -2.11826       -0.58564
O          5.14123       -3.28748       -1.22557
C          5.01427       -4.39449       -0.32799
C          5.90329       -1.33939       -0.01247
O          7.05577       -1.66442        0.10396
C          5.18606       -0.10434        0.39444
C          5.50771        1.07011        0.99060
H          6.46930        1.41085        1.34939
S          4.11543        2.07988        1.10511
H         -2.14931       -0.85874        0.22761
H         -3.33797        1.90991       -0.36359
H          5.23133       -5.27208       -0.93751
H          3.99523       -4.45482        0.06563
H          5.74331       -4.31318        0.48369
