31
COMP27_020000.log	Energy: -1781245.1911498
C         -3.39729       -0.47783       -0.32515
C         -1.97191       -0.71643       -0.07278
C         -1.35549       -1.82678        0.45539
Cl        -2.19077       -3.22002        1.07562
C          0.05658       -1.74367        0.52598
H          0.67429       -2.52172        0.95680
C          0.53506       -0.55791        0.03111
S         -0.76588        0.46116       -0.48841
C          1.90939       -0.09441       -0.08200
C          2.98444       -0.89759       -0.01572
C          4.36189       -0.43031       -0.06537
C          4.86207        0.83197        0.12607
H          4.26133        1.69413        0.38787
C          6.27419        0.87852       -0.02414
Cl         7.18361        2.34536        0.16435
C          6.84397       -0.32494       -0.31374
H          7.89069       -0.54375       -0.46679
S          5.64419       -1.55279       -0.41626
C         -4.01043        0.78967       -0.03529
N         -3.39930        1.86393        0.46398
S         -4.53426        3.02021        0.60293
N         -5.83531        2.22089        0.04486
C         -5.41629        0.99585       -0.27806
C         -6.22041       -0.05153       -0.81100
H         -7.27659        0.11666       -0.98672
C         -5.60921       -1.23857       -1.08418
H         -6.18469       -2.06042       -1.49815
C         -4.21446       -1.44578       -0.85236
H         -3.78920       -2.40857       -1.11274
H          2.05040        0.97282       -0.24062
H          2.84016       -1.97244        0.07450
