31
COMP15_000010.log	Energy: -765149.5986895
C          2.45398        0.64204       -0.19959
C          0.99545        0.66683       -0.10713
C          0.26326       -0.51106       -0.27152
C         -1.12214       -0.42823       -0.18977
N         -2.06298       -1.42966       -0.31594
H         -1.85570       -2.40098       -0.47742
C         -3.32724       -0.89385       -0.16414
C         -4.57066       -1.52410       -0.20916
C         -5.69647       -0.73551       -0.02199
H         -6.67769       -1.19949       -0.05218
C         -5.59507        0.64646        0.20446
C         -4.35581        1.26626        0.24805
C         -3.20616        0.49489        0.06243
C         -1.79074        0.79343        0.04480
C         -1.04158        1.96000        0.21114
C          0.33792        1.89211        0.13936
C          3.32676        1.59994       -0.54270
C          4.74669        1.20339       -0.46981
C          4.95862       -0.05074       -0.07088
H          5.88352       -0.59571        0.05457
S          3.39559       -0.83849        0.25126
O          3.23913       -1.11696        1.67369
O          3.16150       -1.90945       -0.71543
H          0.76070       -1.45396       -0.47495
H         -4.65656       -2.59238       -0.38313
H         -6.49832        1.23094        0.34738
H         -4.27736        2.33533        0.42395
H         -1.53324        2.90834        0.40645
H          0.92888        2.78755        0.30250
H          3.03123        2.59060       -0.86886
H          5.54008        1.89326       -0.73428
