42
COMP71_100012.log	Energy: -1843080.0832423
C         -0.29318       -1.82104        0.12317
C          1.06078       -1.29451        0.03697
C          1.60692       -0.28679        0.75679
F          0.95703        0.39978        1.68891
C          2.98619       -0.00900        0.47608
C          3.80331        0.96285        1.05104
H          3.41141        1.63719        1.80480
C          5.11782        1.02620        0.61442
S          6.35804        2.14083        1.15762
C          7.52722        1.42902        0.07410
H          8.54010        1.80220        0.02843
C          7.00015        0.41773       -0.64246
F          7.67398       -0.30007       -1.54496
C          5.61465        0.14080       -0.37283
C          4.79751       -0.83197       -0.94650
H          5.18703       -1.50616       -1.70177
C          3.48351       -0.89505       -0.50967
S          2.24580       -2.00333       -1.05962
C         -1.50425       -1.16604        0.08261
C         -1.70458        0.29058       -0.16519
O         -0.78237        1.06194       -0.36152
C         -3.11985        0.71207       -0.17263
C         -3.52969        2.00402       -0.35396
O         -2.74190        3.05576       -0.55212
C         -3.33516        4.33164       -0.71164
S         -5.28506        2.15470       -0.29447
C         -5.44516        0.42295       -0.02068
O         -6.62856       -0.16349        0.12518
C         -7.79823        0.63168        0.04816
C         -4.23006       -0.20148        0.01995
C         -4.03809       -1.64448        0.22442
O         -4.94452       -2.44685        0.37259
C         -2.61243       -2.06540        0.23453
C         -2.23164       -3.36717        0.37297
H         -2.88753       -4.21909        0.48863
S         -0.52880       -3.53206        0.33780
H         -2.50930        5.02664       -0.85809
H         -3.89960        4.61824        0.18431
H         -3.99170        4.35364       -1.59017
H         -8.63117       -0.05475        0.19466
H         -7.88558        1.10969       -0.93516
H         -7.80811        1.39412        0.83658
