54
COMP92_410003.log	Energy: -1791624.8438697
C          0.26916       -0.17757        0.30241
C         -1.13670       -0.58361        0.46180
C         -1.63019       -1.38090        1.45947
O         -0.98283       -1.86122        2.54274
C         -3.01246       -1.67619        1.27622
F         -3.68748       -2.39716        2.16333
C         -3.55628       -1.14405        0.14552
S         -2.35644       -0.24184       -0.73076
C         -4.92168       -1.27724       -0.32519
S         -5.81599        0.05449       -1.00025
C         -7.20901       -0.93758       -1.26647
H         -8.09930       -0.51759       -1.71376
C         -7.00987       -2.21801       -0.84417
O         -7.85989       -3.26906       -0.88124
C         -5.69598       -2.39969       -0.31287
F         -5.28597       -3.58416        0.12586
C          1.21604       -1.23131        0.19619
C          2.54649       -0.98599       -0.02394
C          3.48979       -2.13053       -0.13038
O          3.16152       -3.28776        0.01260
N          4.81530       -1.79300       -0.41213
C          5.74547       -2.89860       -0.57622
O          5.97370       -3.40612       -1.63364
O          6.25742       -3.21455        0.59860
C          7.19224       -4.30065        0.57379
C          5.34666       -0.50816       -0.56407
O          6.52949       -0.35197       -0.77406
C          4.37484        0.60977       -0.44687
C          4.81578        1.90395       -0.60149
H          5.86505        2.08307       -0.80898
C          3.90658        2.96956       -0.48885
C          2.57866        2.72952       -0.21591
C          1.65840        3.88599       -0.09448
O          1.98740        5.03649       -0.28638
N          0.35556        3.56543        0.27992
C         -0.53127        4.68106        0.56797
O         -0.52999        5.26424        1.61106
O         -1.29184        4.91373       -0.48559
C         -2.24814        5.96676       -0.31533
C         -0.18348        2.29168        0.50233
O         -1.31144        2.19550        0.93121
C          0.72071        1.13837        0.21784
C          2.09210        1.40658       -0.05472
C          3.01186        0.34026       -0.17755
H         -0.10607       -1.46005        2.59900
H         -8.69836       -2.98539       -1.26409
H          0.87592       -2.26032        0.26468
H          7.48552       -4.45222        1.61095
H          8.05567       -4.03467       -0.03962
H          6.71499       -5.19558        0.16972
H          4.23352        3.99634       -0.61241
H         -2.76830        6.04059       -1.26864
H         -1.73814        6.90241       -0.07768
H         -2.94317        5.71092        0.48704
