26
COMP32_100000.log	Energy: -1211639.6159441
C         -2.11518        0.03366        0.03622
C         -0.69807       -0.29068        0.22042
C         -0.17372       -1.38132        0.85664
F         -0.92657       -2.30034        1.45722
C          1.23954       -1.45539        0.86747
H          1.79372       -2.24255        1.36314
C          1.80326       -0.39057        0.21748
S          0.59518        0.68375       -0.41051
C          3.21499       -0.09951        0.01840
S          4.37062       -1.38887       -0.13781
C          5.67833       -0.28030       -0.31836
H          6.69578       -0.61731       -0.44899
C          5.22029        0.99932       -0.27588
F          6.00890        2.06877       -0.39225
C          3.81964        1.12461       -0.08293
H          3.30792        2.07522        0.00376
C         -2.62503        1.30879        0.29425
F         -1.81104        2.27874        0.71650
C         -3.97160        1.59705        0.12179
F         -4.40724        2.83006        0.38412
C         -4.85777        0.62273       -0.30613
H         -5.90911        0.84705       -0.43698
C         -4.36662       -0.64507       -0.56734
F         -5.18870       -1.60578       -0.99077
C         -3.01800       -0.93648       -0.40873
F         -2.59106       -2.16272       -0.70234
