39
COMP45_000000.log	Energy: -896333.9918479
C         -1.64492       -1.14460        0.06194
C         -0.17921       -1.07755        0.00777
C          0.45317        0.15792        0.15510
C          1.84112        0.19723        0.08725
N          2.68053        1.29217        0.18085
C          2.27686        2.66286        0.38361
C          3.98724        0.85211        0.08161
C          5.17031        1.59082        0.13906
C          6.36591        0.90070       -0.00065
H          7.30195        1.44980        0.04039
C          6.39346       -0.48980       -0.18945
C          5.21485       -1.21909       -0.23963
C          3.99814       -0.54894       -0.10145
C          2.61593       -0.96874       -0.09885
C          1.97037       -2.19754       -0.24138
C          0.58877       -2.24679       -0.19321
C         -2.60985       -0.16644        0.00730
C         -2.70438        1.31377       -0.12262
O         -1.84460        2.16897       -0.18364
N         -4.07650        1.59542       -0.14890
C         -4.61672        2.93114       -0.27563
C         -4.89088        0.46224       -0.03562
O         -6.09926        0.47828       -0.03103
C         -3.93997       -0.66803        0.06971
C         -4.03032       -2.01295        0.18516
H         -4.91229       -2.63474        0.24889
S         -2.44606       -2.69800        0.22325
H         -0.13299        1.05664        0.30250
H          1.23024        2.78321        0.09813
H          2.87841        3.32151       -0.24979
H          2.39737        2.96746        1.42977
H          5.16123        2.66527        0.29325
H          7.34777       -0.99585       -0.29524
H          5.23675       -2.29569       -0.38339
H          2.54183       -3.10786       -0.39588
H          0.09574       -3.20475       -0.32812
H         -3.79054        3.63649       -0.18271
H         -5.35349        3.10728        0.51133
H         -5.10152        3.05833       -1.24754
