43
COMP56_000400.log	Energy: -1170824.2699994
C         -0.91676        0.05768       -0.31777
C          0.50884       -0.29290       -0.30124
C          1.44763        0.64147        0.16998
C          2.79584        0.32811        0.15057
C          3.97006        1.18316        0.60314
C          4.06562        2.47511       -0.22520
C          3.87348        1.51455        2.10179
C          5.13878        0.25068        0.31850
C          6.49166        0.47291        0.52436
C          7.40042       -0.53262        0.19308
H          8.46274       -0.37123        0.34979
C          6.95642       -1.74457       -0.33686
C          5.59821       -1.97207       -0.54472
C          4.69458       -0.96776       -0.21382
C          3.23076       -0.91851       -0.31724
C          2.31035       -1.85969       -0.76797
C          0.95797       -1.53935       -0.76413
C         -1.48160        1.24825       -0.71868
O         -0.83058        2.32549       -1.20287
N         -2.83354        1.34068       -0.63611
C         -3.33359        0.22527       -0.17958
S         -2.18480       -1.01865        0.18137
C         -4.75720        0.01530        0.02404
S         -5.90647        1.26561       -0.32320
C         -7.15850        0.18997        0.17993
H         -8.19833        0.48388        0.16772
C         -6.61314       -1.00600        0.56287
O         -7.25677       -2.10046        1.01784
N         -5.25875       -1.10156        0.47369
H          1.10491        1.58801        0.58341
H          3.18544        3.10602       -0.05734
H          4.13452        2.25114       -1.29412
H          4.95198        3.05138        0.06187
H          2.99120        2.13133        2.30568
H          4.75851        2.07113        2.42886
H          3.80119        0.60068        2.69886
H          6.84502        1.41398        0.93854
H          7.67682       -2.51667       -0.58970
H          5.25522       -2.91673       -0.95770
H          2.63728       -2.83017       -1.13053
H          0.23386       -2.25802       -1.13728
H          0.08975        2.07675       -1.36763
H         -8.20385       -1.92081        1.03999
