30
COMP52_220400.log	Energy: -2653698.2149313
C         -1.55577        0.21739        0.51438
C         -0.14745        0.51399        0.29914
C          0.43758        1.64498       -0.20866
Cl        -0.44752        3.03471       -0.70856
C          1.86316        1.56725       -0.26688
Cl         2.85047        2.84286       -0.86957
C          2.36057        0.38280        0.20511
S          1.06992       -0.66331        0.69806
C          3.75712       -0.02642        0.33318
S          4.79064        0.66500        1.54322
C          6.12262       -0.29969        1.05247
H          7.08243       -0.21914        1.54230
C          5.79560       -1.11633        0.01407
Cl         6.89997       -2.21590       -0.72599
C          4.43525       -0.96284       -0.40050
Cl         3.73669       -1.84987       -1.70081
C         -2.16116       -0.10595        1.71005
O         -1.58323       -0.17016        2.92013
N         -3.48786       -0.38477        1.65734
C         -3.92057       -0.28174        0.43041
S         -2.74454        0.16314       -0.75662
C         -5.30661       -0.51577        0.05741
S         -6.49277       -0.95600        1.23944
C         -7.66456       -1.00539       -0.02425
H         -8.69823       -1.25329        0.17028
C         -7.07195       -0.68907       -1.21860
O         -7.64751       -0.61730       -2.43497
N         -5.74085       -0.41399       -1.16809
H         -0.66166        0.11440        2.85062
H         -8.58421       -0.83205       -2.35498
