48
COMP77_120003.log	Energy: -2562800.7736390
C          0.97091       -2.20602       -0.42457
C         -0.41859       -1.93603       -0.05971
C         -1.12628       -2.44353        0.99585
Cl        -0.49662       -3.52334        2.18250
C         -2.45950       -1.96050        1.04223
F         -3.30104       -2.33554        2.00578
C         -2.78889       -1.09635        0.03212
S         -1.41027       -0.87628       -1.00109
C         -4.03295       -0.40628       -0.25606
C         -5.16796       -0.54230        0.45551
C         -6.41405        0.14557        0.17102
C         -6.73627        1.04730       -0.80829
F         -5.88082        1.47729       -1.73495
C         -8.08236        1.50520       -0.76879
Cl        -8.71021        2.64279       -1.90519
C         -8.79031        0.94581        0.25042
H         -9.82619        1.11857        0.50298
S         -7.81600       -0.13782        1.16335
C          2.06453       -1.37637       -0.35423
C          2.06948       -0.00025        0.20076
O          1.11316        0.49757        0.76008
C          3.37807        0.70491        0.08304
C          3.58151        2.01504        0.43663
C          2.55894        3.05942        0.75449
O          1.61659        3.31849        0.05385
O          2.87830        3.70275        1.88252
C          1.97338        4.74529        2.25977
S          5.24428        2.43854        0.35322
C          5.69118        0.85894       -0.17175
C          7.13861        0.53306       -0.33110
O          7.66259       -0.48137        0.04511
O          7.78559        1.56656       -0.89004
C          9.19895        1.39517       -1.02384
C          4.59330        0.04236       -0.29388
C          4.58325       -1.33160       -0.87473
O          5.55193       -1.84708       -1.39367
C          3.26104       -2.00055       -0.83315
C          3.05577       -3.28250       -1.25596
H          3.80298       -3.95883       -1.64857
S          1.41851       -3.74701       -1.08560
H         -4.01477        0.26169       -1.11119
H         -5.18377       -1.21110        1.31019
H          2.37644        5.16018        3.18235
H          0.97544        4.33298        2.42319
H          1.92499        5.50907        1.48026
H          9.56246        2.31546       -1.47864
H          9.41660        0.53672       -1.66298
H          9.65883        1.23978       -0.04500
