28
COMP62_100001.log	Energy: -1124947.3083556
C         -2.02351        0.47133        0.12804
C         -0.67017       -0.01370        0.20748
C         -0.23658       -1.23049        0.67233
F         -1.05062       -2.15180        1.15789
C          1.16680       -1.40667        0.66304
H          1.65599       -2.30044        1.02957
C          1.81720       -0.30002        0.18461
S          0.69926        0.94595       -0.27880
C          3.24714       -0.09752        0.02007
S          4.30384       -1.44734       -0.26753
C          5.69256       -0.42954       -0.31591
H          6.68314       -0.82868       -0.47496
C          5.33360        0.87050       -0.13802
F          6.20284        1.88115       -0.13120
C          3.94404        1.08119        0.05655
H          3.50401        2.05420        0.23744
C         -3.20064       -0.19551       -0.06966
C         -3.75389       -1.50566       -0.41204
O         -3.26741       -2.60450       -0.57205
N         -5.13997       -1.21500       -0.56154
H         -5.80963       -1.93227       -0.79192
C         -5.42261        0.12030       -0.37569
H         -6.42897        0.49932       -0.49158
C         -4.26919        0.76739       -0.07177
C         -3.70590        2.09834        0.15256
O         -4.19557        3.20008        0.26678
N         -2.31313        1.82770        0.23048
H         -1.66179        2.53282        0.54245
