50
COMP75_000022.log	Energy: -1373974.2463054
C          0.02547       -1.29739       -0.44338
C          1.30327       -0.55810       -0.47651
C          2.34618       -0.96569        0.35482
C          3.55439       -0.28669        0.25070
N          4.72327       -0.46625        0.96352
O          4.95622       -1.52529        1.79665
C          5.39170       -2.66448        1.04886
C          5.70494        0.38971        0.50588
C          7.03264        0.51128        0.90733
C          7.79386        1.48693        0.27898
H          8.83415        1.61287        0.56397
C          7.24752        2.31909       -0.71067
C          5.92189        2.18626       -1.09990
C          5.13385        1.20529       -0.49551
C          3.75931        0.77118       -0.65808
C          2.69885        1.16575       -1.47682
C          1.48776        0.50260       -1.38600
C         -1.28070       -0.87547       -0.32213
C         -1.73167        0.52778       -0.10266
O         -0.96483        1.47364       -0.04808
C         -3.19391        0.68008        0.05117
C         -3.81707        1.87788        0.26654
O         -3.22550        3.06503        0.35694
C         -4.01261        4.19576        0.68344
S         -5.56602        1.69901        0.39432
C         -5.42666       -0.03876        0.14905
O         -6.48825       -0.83923        0.14196
C         -7.77158       -0.26596        0.31221
C         -4.12706       -0.42745       -0.01599
C         -3.68800       -1.81554       -0.22345
O         -4.44231       -2.77275       -0.27854
C         -2.21578       -1.96810       -0.35398
C         -1.61648       -3.18351       -0.49723
H         -2.11185       -4.14336       -0.54432
S          0.08532       -3.02780       -0.60222
H          2.21677       -1.76179        1.08085
H          5.54633       -3.44966        1.79031
H          6.32974       -2.44865        0.52643
H          4.62522       -2.97124        0.32928
H          7.44104       -0.12635        1.68404
H          7.87178        3.07580       -1.17524
H          5.50351        2.83319       -1.86560
H          2.82160        1.98008       -2.18455
H          0.65797        0.80355       -2.01358
H         -3.31943        5.03503        0.72476
H         -4.49656        4.07014        1.65956
H         -4.77018        4.38513       -0.08748
H         -8.47705       -1.09392        0.25400
H         -7.98906        0.45700       -0.48365
H         -7.85899        0.22046        1.29155
