48
COMP61_300022.log	Energy: -1451279.4443971
C         -2.32251        0.57948        0.22229
C         -0.87630        0.43287        0.17376
C          0.06933        1.30199       -0.30807
C         -0.25059        2.54713       -0.92385
N         -0.50763        3.55518       -1.43602
C          1.41190        0.77477       -0.20887
C          2.62747        1.35825       -0.58915
O          2.69225        2.59042       -1.16065
C          2.75578        3.67472       -0.23420
C          3.78145        0.60892       -0.40163
S          5.39639        1.13200       -0.81952
C          6.05377       -0.35697       -0.24150
H          7.12058       -0.53123       -0.28849
C          5.12109       -1.22515        0.23737
C          5.46773       -2.51551        0.74235
N          5.77284       -3.56601        1.12642
C          3.77464       -0.69220        0.15494
C          2.56358       -1.27357        0.53802
O          2.50258       -2.50545        1.11011
C          2.36865       -3.58635        0.18378
C          1.40696       -0.52364        0.35106
S         -0.19685       -1.05263        0.76638
C         -3.27859       -0.35399       -0.06292
C         -3.45451       -1.66602       -0.68759
O         -2.69856       -2.52096       -1.09125
N         -4.87854       -1.77453       -0.70354
O         -5.53820       -2.79582       -1.31821
C         -5.53871       -3.96832       -0.49654
C         -5.52054       -0.66378       -0.21407
H         -6.60054       -0.61596       -0.21844
C         -4.57185        0.21827        0.19685
C         -4.39198        1.55102        0.75099
O         -5.14463        2.36792        1.22588
N         -2.96955        1.74389        0.61583
O         -2.30840        2.65534        1.40285
C         -2.59755        4.00425        1.00165
H          2.70459        4.58453       -0.83165
H          3.69536        3.64724        0.33013
H          1.90983        3.65067        0.46100
H          2.40366       -4.49776        0.77980
H          3.19600       -3.59175       -0.53333
H          1.41421       -3.52329       -0.35145
H         -6.11254       -4.70245       -1.06303
H         -6.02685       -3.76657        0.46317
H         -4.51776       -4.32566       -0.34211
H         -1.87602        4.60708        1.55456
H         -3.61739        4.26792        1.28461
H         -2.44100        4.12901       -0.07137
