52
COMP84_100003.log	Energy: -1603619.0560698
C         -2.14792       -0.29700        0.08305
C         -3.59625       -0.52520        0.10664
C         -4.59218        0.35578        0.42623
F         -4.38918        1.62061        0.79604
C         -5.89663       -0.19754        0.35394
S         -7.50327        0.38284        0.63117
C         -8.15637       -1.17849        0.22152
H         -9.22179       -1.35517        0.24152
C         -7.18655       -2.07185       -0.10254
F         -7.41151       -3.33615       -0.45494
C         -5.87640       -1.52149       -0.02902
S         -4.27131       -2.09566       -0.30996
C         -1.25411       -1.35317        0.29972
C          0.11747       -1.15936        0.25216
C          0.63430        0.11154       -0.01267
C          1.99033        0.66508       -0.02773
C          1.81701        2.14691       -0.26087
O          2.67160        2.97684       -0.44156
N          0.42519        2.38610       -0.34961
C         -0.19722        3.62025       -0.58539
O         -1.37417        3.73139       -0.83715
O          0.65270        4.63225       -0.47940
C          0.08335        5.91897       -0.72700
C         -0.27915        1.16913       -0.19047
C         -1.64983        0.99113       -0.16047
C          3.22284        0.08488        0.07511
C          3.43844       -1.39036       -0.16275
O          2.62658       -2.21729       -0.49561
N          4.82656       -1.62397       -0.03674
C          5.48634       -2.84767       -0.21329
O          6.68790       -2.94581       -0.30248
O          4.63909       -3.86737       -0.24791
C          5.24661       -5.14289       -0.45843
C          5.49087       -0.41160        0.27153
C          6.83876       -0.22560        0.53739
C          7.25535        1.05118        0.90704
H          8.30774        1.22092        1.11311
C          6.34638        2.09867        1.02236
C          4.99980        1.90086        0.74354
C          4.55460        0.63857        0.33979
H         -1.63325       -2.34626        0.52093
H          0.78022       -1.99518        0.41023
H          0.91324        6.61837       -0.63886
H         -0.69001        6.14297        0.01121
H         -0.35108        5.96072       -1.72809
H         -2.31263        1.82469       -0.33109
H          4.42074       -5.85240       -0.46911
H          5.94422       -5.37421        0.34958
H          5.78020       -5.15996       -1.41132
H          7.53713       -1.04541        0.45719
H          6.68747        3.08339        1.32508
H          4.30645        2.72311        0.82130
