24
COMP64_200001.log	Energy: -1528663.1487866
C         -1.63736        0.38015       -0.00392
C         -0.18989        0.36127       -0.00254
C          0.71531        1.40340        0.00075
Cl         0.35382        3.09936        0.00477
C          2.05905        0.96115        0.00106
S          3.60898        1.73538        0.00483
C          4.39602        0.18615        0.00221
H          5.47539        0.12550        0.00332
C          3.52126       -0.85538       -0.00100
Cl         3.97985       -2.52127       -0.00436
C          2.16516       -0.41552       -0.00187
S          0.63126       -1.19670       -0.00458
C         -2.52552       -0.66804       -0.00522
C         -2.61371       -2.12555        0.00345
O         -1.77871       -3.01037        0.00656
N         -4.01300       -2.34907        0.01117
H         -4.40107       -3.27938        0.01175
C         -4.73337       -1.17288        0.00471
H         -5.81467       -1.18169        0.00950
C         -3.85876       -0.13595       -0.00499
C         -3.77885        1.32434       -0.00510
O         -4.61370        2.20145       -0.00685
N         -2.38028        1.55154       -0.00384
H         -1.99952        2.48441       -0.00979
