38
COMP61_100012.log	Energy: -1316381.0723526
C          1.79844        0.65324       -0.05718
C          0.37863        0.38565       -0.04357
C         -0.65507        1.19426        0.31922
F         -0.52474        2.42902        0.79672
C         -1.95659        0.61263        0.20220
C         -3.19029        1.19683        0.49483
H         -3.24725        2.21464        0.86555
C         -4.31966        0.42270        0.28964
S         -5.98659        0.89231        0.56442
C         -6.55302       -0.67194        0.03712
H         -7.60882       -0.90088        0.01974
C         -5.53986       -1.48529       -0.31775
F         -5.69317       -2.73601       -0.75669
C         -4.22801       -0.90807       -0.19279
C         -2.99635       -1.49209       -0.47744
H         -2.93801       -2.51216       -0.84158
C         -1.86311       -0.71663       -0.27510
S         -0.20681       -1.20021       -0.53632
C          2.85155       -0.21572        0.06883
C          3.16472       -1.59555        0.42582
O          2.50686       -2.59289        0.63464
N          4.59273       -1.55994        0.44506
O          5.36027       -2.62318        0.81557
C          5.43517       -3.58610       -0.24078
C          5.11906       -0.32201        0.17110
H          6.18898       -0.16995        0.18854
C          4.08105        0.52024       -0.07143
C          3.76679        1.90763       -0.36367
O          4.42683        2.87850       -0.65207
N          2.33418        1.92615       -0.22961
O          1.60837        2.90707       -0.85554
C          1.64598        4.12584       -0.10597
H          6.09455       -4.36663        0.14059
H          5.86611       -3.13582       -1.14190
H          4.44514       -3.99784       -0.45067
H          0.89002        4.75911       -0.57222
H          2.63321        4.58495       -0.18453
H          1.38799        3.94050        0.93929
