35
COMP47_020002.log	Energy: -1912725.5899750
C         -2.77409       -1.02302       -0.03701
C         -1.33220       -1.20159       -0.08972
C         -0.57449       -2.35425       -0.18943
Cl        -1.20715       -3.96374       -0.32511
C          0.82254       -2.15106       -0.19470
H          1.53426       -2.96041       -0.29700
C          1.15441       -0.82487       -0.08592
S         -0.25722        0.16958       -0.00280
C          2.46717       -0.20091       -0.04595
C          3.61647       -0.87136        0.14247
C          4.93809       -0.26491        0.14021
C          5.32513        0.99353       -0.24562
H          4.65604        1.74482       -0.64603
C          6.72099        1.19876       -0.08254
Cl         7.49776        2.69597       -0.49062
C          7.38935        0.11752        0.41032
H          8.44636        0.02594        0.61336
S          6.30621       -1.18649        0.69155
C         -3.52302        0.13153       -0.07139
C         -3.29369        1.59436       -0.19338
O         -2.28290        2.24676       -0.29291
N         -4.58884        2.13934       -0.13931
O         -4.81177        3.46156       -0.35732
C         -4.81393        4.18091        0.87848
C         -5.63981        1.21522       -0.02071
O         -6.81279        1.48083        0.03727
C         -4.92483       -0.08332        0.03382
C         -5.27806       -1.38377        0.15442
H         -6.26493       -1.81647        0.24388
S         -3.87571       -2.38529        0.13391
H          2.49163        0.87966       -0.17014
H          3.58146       -1.94472        0.31879
H         -5.00071        5.21800        0.59816
H         -3.84099        4.09579        1.37169
H         -5.61460        3.81949        1.53088
