62
COMP91_300003.log	Energy: -1785640.7547067
C          0.60344       -0.11758       -0.23744
C         -0.85921       -0.35125       -0.18368
C         -1.61804       -0.40029        0.94807
C         -1.00521       -0.12678        2.20735
N         -0.45065        0.10475        3.19983
C         -3.01716       -0.70656        0.69424
C         -4.09145       -0.82538        1.58631
C         -4.00136       -0.65009        3.07891
C         -5.31885       -1.14014        1.00598
S         -6.79555       -1.34064        1.93076
C         -7.68993       -1.66993        0.49822
H         -8.75126       -1.87259        0.55153
C         -6.93726       -1.63930       -0.63491
C         -7.55042       -1.88365       -1.90169
N         -8.08507       -2.08722       -2.91076
C         -5.53429       -1.33589       -0.38192
C         -4.45773       -1.21987       -1.27382
C         -4.54622       -1.39254       -2.76691
C         -3.23228       -0.90360       -0.69300
S         -1.75753       -0.70077       -1.61810
C          1.43309       -1.26250       -0.21998
C          2.80009       -1.14512       -0.21702
C          3.63524       -2.37517       -0.19149
O          3.17758       -3.49645       -0.17262
N          5.01573       -2.16497       -0.19148
C          5.85154       -3.35530       -0.21182
O          6.21675       -3.87791       -1.22240
O          6.11120       -3.72355        1.02842
C          6.93262       -4.89158        1.14976
C          5.68399       -0.93676       -0.17553
O          6.89412       -0.89380       -0.14294
C          4.81684        0.27008       -0.20164
C          5.39592        1.51755       -0.19694
H          6.47746        1.59664       -0.17634
C          4.58674        2.66830       -0.21472
C          3.21544        2.55535       -0.24131
C          2.39500        3.79120       -0.25160
O          2.85733        4.91051       -0.21939
N          1.01572        3.58995       -0.30813
C          0.19011        4.78620       -0.38659
O         -0.11335        5.30097       -1.42129
O         -0.13553        5.16739        0.83337
C         -0.96029        6.33729        0.89903
C          0.32989        2.37396       -0.31094
O         -0.88065        2.36834       -0.36048
C          1.17636        1.14559       -0.26477
C          2.59019        1.28258       -0.24797
C          3.40787        0.13041       -0.22483
H         -3.04221       -0.25444        3.40780
H         -4.15827       -1.60884        3.58761
H         -4.77754        0.04038        3.42885
H         -5.49822       -1.80477       -3.09582
H         -3.75786       -2.06716       -3.12058
H         -4.40826       -0.42898       -3.27192
H          0.98700       -2.25143       -0.19792
H          7.05424       -5.04885        2.21983
H          7.89849       -4.72038        0.67018
H          6.43718       -5.74653        0.68519
H          5.02852        3.65878       -0.20593
H         -1.12403        6.51452        1.96032
H         -1.90654        6.15567        0.38526
H         -0.44711        7.18353        0.43787
