38
COMP77_240001.log	Energy: -2246788.0644497
C          2.00632       -0.78430       -0.61773
C          0.76289       -0.05332       -0.47374
C          0.45548        1.25606       -0.79858
O          1.29301        2.20185       -1.21047
C         -0.94925        1.51316       -0.71032
Cl        -1.58895        3.07713       -1.06280
C         -1.70851        0.43851       -0.32649
S         -0.68822       -0.93803       -0.04464
C         -3.14253        0.41613       -0.12454
C         -3.84178       -0.66916        0.25517
C         -5.27272       -0.76481        0.47616
C         -6.31844        0.10730        0.28756
Cl        -6.20626        1.72390       -0.33896
C         -7.60100       -0.41876        0.64314
O         -8.76398        0.25515        0.53873
C         -7.51724       -1.69957        1.10394
H         -8.33217       -2.32424        1.43769
S         -5.89233       -2.26261        1.10355
C          3.33115       -0.48560       -0.31880
C          3.83955        0.73418        0.31921
O          3.16053        1.73783        0.54373
C          5.26579        0.70594        0.69995
C          5.90337        1.72442        1.35170
H          5.46756        2.65407        1.69073
S          7.56379        1.36595        1.59723
C          7.42414       -0.15789        0.81450
H          8.27179       -0.81995        0.70247
C          6.14714       -0.38018        0.38824
C          5.67706       -1.59040       -0.31637
O          6.40589       -2.52089       -0.60762
C          4.22164       -1.58597       -0.61076
C          3.58363       -2.67116       -1.12292
H          4.03882       -3.61212       -1.40052
S          1.90010       -2.39994       -1.27524
H          2.10236        2.13552       -0.64830
H         -3.63764        1.36339       -0.30235
H         -3.30435       -1.60063        0.43062
H         -8.58517        1.14153        0.19436
