60
COMP87_210003.log	Energy: -2277511.6946175
C          0.20665        0.60943       -0.16591
C          1.66489        0.74548       -0.22267
C          2.42029        1.85632       -0.47770
F          1.91412        3.05866       -0.73689
C          3.82439        1.64321       -0.47372
Cl         4.89832        2.95586       -0.80053
C          4.17133        0.33935       -0.20749
S          2.72706       -0.60090        0.04095
C          5.43832       -0.36146       -0.09379
C          6.66615        0.18300       -0.19080
C          7.93445       -0.51795       -0.07952
C          8.28365       -1.80427        0.26036
Cl         7.21381       -3.08294        0.71078
C          9.69122       -2.02414        0.23116
F         10.21661       -3.20620        0.53241
C         10.41577       -0.93266       -0.12275
H         11.48845       -0.85530       -0.21615
S          9.37448        0.39997       -0.43000
C         -0.40340       -0.62341       -0.42909
C         -1.77827       -0.77874       -0.35233
C         -2.58419        0.30973       -0.00913
C         -4.03416        0.50881        0.04877
C         -4.22815        1.97539        0.34833
O         -5.25810        2.56084        0.56846
N         -2.93647        2.54548        0.44392
C         -2.63156        3.87936        0.75205
O         -1.51468        4.25875        1.01556
O         -3.70298        4.65773        0.69914
C         -3.46123        6.02937        1.01898
C         -1.95684        1.55077        0.21457
C         -0.58576        1.72089        0.15512
C         -5.08455       -0.35708       -0.06464
C         -4.91678       -1.84780        0.11068
O         -3.91712       -2.45487        0.40364
N         -6.20254       -2.41917       -0.01699
C         -6.52967       -3.77583        0.11200
O         -7.66531       -4.17649        0.21736
O         -5.45336       -4.54975        0.08154
C         -5.71531       -5.94495        0.24249
C         -7.15698       -1.40196       -0.26261
C         -8.51267       -1.55270       -0.50894
C         -9.24553       -0.40820       -0.81472
H        -10.31027       -0.50277       -1.00501
C         -8.63372        0.83966       -0.88718
C         -7.27546        0.97817       -0.62894
C         -6.51785       -0.14691       -0.28985
H          5.34604       -1.42736        0.08520
H          6.75877        1.24762       -0.37621
H          0.20241       -1.47887       -0.71266
H         -2.21829       -1.74360       -0.54784
H         -4.43364        6.51305        0.94254
H         -2.75405        6.46711        0.31082
H         -3.06182        6.12267        2.03120
H         -0.14499        2.68361        0.35978
H         -4.73930       -6.42449        0.18898
H         -6.36916       -6.30668       -0.55411
H         -6.18573       -6.13553        1.20963
H         -8.97854       -2.52572       -0.46086
H         -9.21822        1.71823       -1.14039
H         -6.81394        1.95171       -0.67437
