27
COMP22_100100.log	Energy: -1404916.2716371
C          1.79805        0.40446        0.15496
C          0.40747       -0.00462        0.35250
C         -0.05448       -1.05280        1.10003
F          0.73815       -1.82930        1.83352
C         -1.45784       -1.23527        1.08122
H         -1.96831       -2.00195        1.65068
C         -2.07809       -0.30235        0.29420
S         -0.93248        0.78482       -0.42226
C         -3.50009       -0.15492        0.02467
S         -4.54541       -1.54404        0.02174
C         -5.92852       -0.58183       -0.34166
H         -6.91081       -1.01696       -0.44878
C         -5.57425        0.72522       -0.46541
F         -6.43981        1.70034       -0.74735
C         -4.19501        0.99023       -0.25802
H         -3.76078        1.98176       -0.29551
C          2.81507       -0.54783       -0.20534
N          2.61813       -1.84500       -0.41886
S          4.06829       -2.47509       -0.80129
N          4.99678       -1.14013       -0.72124
C          4.18583       -0.13939       -0.38426
C          4.56808        1.22403       -0.22410
H          5.59250        1.54623       -0.36112
C          3.58466        2.09923        0.09595
F          3.83912        3.39541        0.26302
C          2.22066        1.69677        0.28485
F          1.36783        2.66802        0.60712
