58
COMP81_200000.log	Energy: -1965040.9079135
C         -0.01126       -0.02393        0.04244
C         -1.48473       -0.01725        0.00609
C         -2.34755       -0.97515       -0.42479
Cl        -1.76371       -2.46336       -1.11723
C         -3.75386       -0.62431       -0.32395
C         -4.91168       -1.34715       -0.66147
C         -4.89151       -2.74586       -1.22517
C         -6.12135       -0.69236       -0.43981
S         -7.68276       -1.41339       -0.80048
C         -8.50334       -0.00022       -0.24016
H         -9.58306        0.05148       -0.25787
C         -7.66554        0.96379        0.19382
Cl        -8.32910        2.45493        0.80321
C         -6.25326        0.62089        0.09948
C         -5.09514        1.33792        0.43738
C         -5.03633        2.72872        1.01566
C         -3.88611        0.68054        0.20908
S         -2.33404        1.39906        0.57238
C          0.71006        1.05330       -0.47900
C          2.10256        1.08561       -0.44048
C          2.80506        0.02781        0.13464
C          4.23076       -0.32253        0.29353
C          4.21855       -1.69730        0.94441
O          5.14669       -2.39775        1.30321
N          2.89990       -2.03869        1.13274
C          2.47519       -3.27350        1.74366
C          2.05425       -1.05369        0.64157
C          0.67447       -1.09911        0.62184
C          5.37763        0.35091       -0.00424
C          5.39913        1.82586       -0.38210
O          4.48008        2.61914       -0.47092
N          6.71563        2.17068       -0.56832
C          7.14871        3.50088       -0.91545
C          7.55097        1.07463       -0.38504
C          8.92490        1.05033       -0.54658
C          9.57736       -0.16720       -0.35180
H         10.65546       -0.21935       -0.47115
C          8.85898       -1.30958       -0.01590
C          7.47431       -1.26712        0.14878
C          6.79530       -0.06034       -0.02282
H         -4.33778       -3.42762       -0.57544
H         -4.41767       -2.77238       -2.21030
H         -5.90195       -3.14717       -1.33425
H         -6.00983        3.19978        1.10829
H         -4.41175        3.37234        0.38423
H         -4.57756        2.70511        2.01176
H          0.17793        1.87986       -0.93928
H          2.63338        1.93326       -0.84415
H          3.37259       -3.83697        2.00094
H          1.86222       -3.85742        1.04878
H          1.89728       -3.07511        2.65254
H          0.13495       -1.93907        1.04379
H          6.26204        4.13408       -0.96035
H          7.64896        3.50361       -1.88998
H          7.83740        3.89020       -0.15817
H          9.47328        1.94519       -0.82202
H          9.37749       -2.25220        0.12609
H          6.93120       -2.15769        0.42338
