62
COMP87_130003.log	Energy: -1816456.3529949
C          0.34313       -0.52250        0.15059
C          1.79887       -0.65942        0.28126
C          2.52283       -1.71219        0.80563
C          1.96497       -2.89189        1.38062
N          1.52346       -3.85352        1.85359
C          3.92435       -1.46655        0.76965
F          4.78862       -2.36332        1.24302
C          4.29390       -0.26290        0.23525
S          2.85915        0.59391       -0.25034
C          5.60421        0.32774        0.03615
C          6.76855       -0.25494        0.37941
C          8.07970        0.33694        0.18111
C          8.45001        1.53626       -0.36562
F          7.58798        2.43143       -0.84547
C          9.85487        1.77796       -0.39158
C         10.44787        2.96403       -0.91780
N         10.92975        3.92734       -1.34476
C         10.55310        0.72994        0.15074
H         11.62495        0.64682        0.25897
S          9.51195       -0.51919        0.67871
C         -0.27762        0.70749        0.39611
C         -1.65165        0.85304        0.27653
C         -2.43712       -0.23963       -0.09856
C         -3.88591       -0.45729       -0.19887
C         -4.04958       -1.91592       -0.55048
O         -5.05962       -2.50360       -0.84624
N         -2.75159       -2.47015       -0.59947
C         -2.41893       -3.79348       -0.93607
O         -1.30858       -4.12703       -1.27408
O         -3.45630       -4.60606       -0.81013
C         -3.19437       -5.97009       -1.15092
C         -1.79361       -1.47238       -0.32297
C         -0.42383       -1.63404       -0.21728
C         -4.95125        0.38492       -0.05861
C         -4.80401        1.88721       -0.14135
O         -3.81764        2.51990       -0.42473
N         -6.08855        2.43471        0.05912
C         -6.42669        3.79577        0.05108
O         -7.56644        4.19490        0.00650
O         -5.35369        4.57115        0.12180
C         -5.62528        5.97371        0.08741
C         -7.03101        1.39153        0.23427
C         -8.38532        1.50957        0.50401
C         -9.10721        0.33695        0.71513
H        -10.17089        0.40653        0.92142
C         -8.48735       -0.90805        0.66989
C         -7.13023       -1.01339        0.39134
C         -6.38197        0.14348        0.15166
H          5.61433        1.31034       -0.42450
H          6.75866       -1.23691        0.84112
H          0.31682        1.56054        0.70868
H         -2.10487        1.81302        0.46513
H         -4.14496       -6.48262       -1.01342
H         -2.42961       -6.38550       -0.49121
H         -2.86055       -6.04807       -2.18781
H          0.03235       -2.58962       -0.43073
H         -4.64910        6.45269        0.14219
H         -6.24717        6.26427        0.93708
H         -6.13441        6.24134       -0.84098
H         -8.85962        2.47867        0.54558
H         -9.06414       -1.81014        0.84569
H         -6.66277       -1.98388        0.34044
