45
COMP41_200032.log	Energy: -2197884.9659080
C          2.55186        0.73846       -0.74734
C          1.11976        0.52445       -0.55685
C          0.18695        1.41033       -0.11517
Cl         0.62816        2.98003        0.47064
C         -1.14776        0.85834       -0.02938
C         -2.36038        1.45517        0.34331
C         -2.57152        2.92717        0.50993
O         -3.16096        3.42494        1.44062
O         -2.12396        3.60425       -0.54794
C         -2.27678        5.02320       -0.47202
C         -3.47242        0.63119        0.49671
S         -5.03860        1.15430        1.07500
C         -5.66652       -0.44715        0.87844
H         -6.68408       -0.66948        1.16962
C         -4.76209       -1.33488        0.41119
Cl        -5.13362       -3.02153        0.28889
C         -3.46463       -0.74518        0.14561
C         -2.28751       -1.30855       -0.36191
C         -2.25299       -2.65277       -1.02540
O         -2.99489       -2.98608       -1.91386
O         -1.24331       -3.39789       -0.56087
C         -1.06374       -4.66118       -1.20824
C         -1.13695       -0.51813       -0.37300
S          0.45163       -1.05724       -0.85604
C          3.60815        0.04913       -0.22679
C          3.81639       -1.05404        0.75068
O          3.03671       -1.72649        1.37371
N          5.21919       -1.14775        0.82554
O          5.82705       -2.15464        1.50571
C          6.13712       -1.74600        2.84088
C          5.94520       -0.27160       -0.00364
O          7.14417       -0.21227       -0.08751
C          4.87434        0.51372       -0.67055
C          4.80249        1.55136       -1.54200
H          5.60720        2.09271       -2.02043
S          3.15402        1.96881       -1.83338
H         -1.86028        5.41109       -1.40029
H         -1.73022        5.41586        0.38888
H         -3.33265        5.28667       -0.37943
H         -0.19241       -5.10879       -0.73320
H         -0.89323       -4.51921       -2.27772
H         -1.94836       -5.28500       -1.06341
H          6.60486       -2.61903        3.29684
H          5.22326       -1.48479        3.38272
H          6.83930       -0.90696        2.83091
