33
COMP22_440300.log	Energy: -1460366.8320030
C          1.91661        0.12220        0.14451
C          0.53776       -0.32538        0.24305
C          0.03205       -1.54656        0.65860
O          0.66620       -2.64387        1.12659
C         -1.38285       -1.61135        0.62453
O         -2.05575       -2.71890        1.00968
C         -1.98280       -0.47001        0.15443
S         -0.78231        0.72580       -0.23439
C         -3.39420       -0.23136       -0.03312
S         -4.61551       -1.42421        0.35328
C         -5.89062       -0.35724       -0.12524
H         -6.92213       -0.67534       -0.06031
C         -5.40724        0.83755       -0.55660
O         -6.06482        1.94023       -1.01245
C         -3.98369        0.91275       -0.50643
O         -3.29353        2.00698       -0.89410
C          2.97216       -0.79378       -0.22950
N          2.82828       -2.10472       -0.42525
S          4.28398       -2.70143       -0.85105
N          5.15336       -1.33659       -0.81221
C          4.32345       -0.35626       -0.45417
C          4.68339        1.00596       -0.29459
H          5.69843        1.33563       -0.47618
C          3.69994        1.86427        0.10482
C          4.04415        3.24709        0.29678
N          4.36254        4.35178        0.43665
C          2.33496        1.43663        0.34169
C          1.45230        2.44965        0.84304
N          0.81632        3.31552        1.27881
H          1.50897       -2.74260        0.63968
H         -1.39177       -3.38266        1.25175
H         -7.01713        1.79789       -0.97291
H         -3.92738        2.70214       -1.12175
