34
COMP51_400310.log	Energy: -1663682.7552965
C          0.93805        0.68318        0.09938
C         -0.49482        0.47933        0.04934
C         -1.18296       -0.61762        0.49403
O         -0.69484       -1.71974        1.09869
C         -2.60238       -0.53609        0.27309
C         -3.56778       -1.48277        0.61570
H         -3.28141       -2.40741        1.10516
C         -4.88570       -1.18805        0.30590
S         -6.28912       -2.18644        0.61759
C         -7.33840       -0.98271       -0.09805
H         -8.40448       -1.16306       -0.14385
C         -6.66999        0.10631       -0.54468
O         -7.16977        1.21372       -1.14468
C         -5.24383        0.02661       -0.32938
C         -4.27923        0.97374       -0.66641
H         -4.56550        1.90254       -1.14779
C         -2.95923        0.67679       -0.35942
S         -1.56738        1.68813       -0.66473
C          1.66464        1.83087        0.36071
C          1.09223        3.09890        0.69859
N          0.63567        4.12613        0.97901
N          3.02875        1.71316        0.32246
C          3.37468        0.49505        0.04194
S          2.05782       -0.60714       -0.23749
C          4.75698        0.04982       -0.03814
S          6.07559        1.15520        0.22569
C          7.16068       -0.14222       -0.04438
H          8.23291       -0.01477        0.00056
C          6.46411       -1.29142       -0.30815
C          7.08077       -2.55755       -0.57383
N          7.60409       -3.56904       -0.78397
N          5.09719       -1.17671       -0.30407
H          0.22657       -1.59031        1.36172
H         -8.12852        1.13720       -1.21638
