37
COMP47_400002.log	Energy: -1430318.8612917
C         -2.02127       -0.84077       -0.01126
C         -0.76713       -0.12681       -0.11451
C         -0.60339        1.21497       -0.35434
H         -1.44024        1.89311       -0.48930
C          0.76139        1.59264       -0.39575
O          1.21500        2.85293       -0.60673
C          1.64195        0.55077       -0.19452
S          0.76661       -0.92818        0.06680
C          3.08349        0.65488       -0.19499
C          3.95453       -0.36554       -0.04803
C          5.39594       -0.21345        0.02363
C          6.12184        0.83035        0.55715
O          5.61625        1.93968        1.14671
C          7.53324        0.64338        0.48259
H          8.24433        1.36947        0.85583
C          7.86283       -0.54275       -0.09637
H          8.85352       -0.93455       -0.28038
S          6.47647       -1.45504       -0.55486
C         -3.31142       -0.37331       -0.07290
C         -4.00143        0.92623       -0.24254
O         -3.58598        2.05125       -0.40337
N         -5.36307        0.58867       -0.15532
O         -6.33755        1.49945       -0.41361
C         -6.79410        2.10564        0.79828
C         -5.64930       -0.77936        0.00872
O         -6.74809       -1.26431        0.08837
C         -4.29783       -1.38891        0.07665
C         -3.79398       -2.63345        0.25077
H         -4.31605       -3.57026        0.38620
S         -2.06586       -2.57686        0.22752
H          0.46482        3.44115       -0.75180
H          3.45228        1.66237       -0.37810
H          3.56985       -1.38239        0.03778
H          4.67204        1.79983        1.30939
H         -7.56207        2.81277        0.48355
H         -5.97489        2.63719        1.29212
H         -7.22696        1.35306        1.46415
