31
COMP22_330100.log	Energy: -1511847.5694260
C         -2.21973       -0.44367       -0.34420
C         -0.84891        0.07705       -0.39260
C         -0.46735        1.39331       -0.51324
C         -1.38585        2.47015       -0.70181
N         -2.13193        3.33799       -0.88014
C          0.95369        1.56353       -0.47069
C          1.58818        2.83907       -0.56252
N          2.10512        3.87305       -0.64362
C          1.62908        0.37043       -0.31774
S          0.52246       -0.95264       -0.23446
C          3.07009        0.15391       -0.25355
S          4.15332        0.98410       -1.31895
C          5.51958        0.20793       -0.64963
H          6.51456        0.42659       -1.01176
C          5.18032       -0.66351        0.34896
C          6.13062       -1.44129        1.07885
N          6.90627       -2.07138        1.66449
C          3.76443       -0.69814        0.58076
C          3.15677       -1.51083        1.58501
N          2.66409       -2.17624        2.39582
C         -3.17840        0.08000        0.58808
N         -2.93969        1.01378        1.50344
S         -4.34306        1.25585        2.28703
N         -5.29480        0.18643        1.51718
C         -4.53314       -0.40387        0.59759
C         -4.94887       -1.42658       -0.30309
H         -5.96463       -1.80184       -0.30446
C         -4.01446       -1.91467       -1.15562
F         -4.30487       -2.87141       -2.03198
C         -2.66481       -1.43005       -1.17720
F         -1.85339       -1.98458       -2.07313
