38
COMP62_420002.log	Energy: -1815209.9531002
C         -1.80891        0.66744       -0.06027
C         -0.52645        0.04742       -0.05448
C         -0.23395       -1.29959        0.20882
O         -1.02408       -2.28881        0.54994
C          1.17737       -1.54774        0.15379
Cl         1.81584       -3.11605        0.46866
C          1.93051       -0.44783       -0.14130
S          0.94829        0.95667       -0.34258
C          3.37928       -0.36009       -0.30911
S          4.18033       -1.21151       -1.58956
C          5.71840       -0.58542       -1.12454
H          6.61030       -0.86383       -1.66925
C          5.62641        0.23824       -0.04121
O          6.61827        0.89613        0.59641
C          4.27846        0.36879        0.42139
Cl         3.88256        1.33234        1.79577
C         -3.09429        0.12907       -0.01823
C         -3.79782       -1.10569       -0.18863
O         -3.43974       -2.28643       -0.30216
N         -5.14210       -0.70205       -0.18827
O         -6.17812       -1.56077       -0.39782
C         -6.46771       -2.30220        0.79261
C         -5.30298        0.66453       -0.10083
H         -6.28796        1.10407       -0.14868
C         -4.05854        1.19565        0.01176
C         -3.35297        2.46516        0.01554
O         -3.68858        3.62238        0.08456
N         -1.98738        2.04236       -0.12449
O         -0.97339        2.92306        0.12698
C         -0.74539        3.77543       -1.00392
H         -1.97033       -2.26284        0.19645
H          7.46143        0.68535        0.17831
H         -7.31288       -2.93714        0.52497
H         -6.74587       -1.62531        1.60772
H         -5.60956       -2.91679        1.07597
H          0.11679        4.37950       -0.71964
H         -1.61675        4.41009       -1.17534
H         -0.51282        3.18166       -1.89395
