31
COMP42_330001.log	Energy: -1447021.9187291
C         -2.44262        0.47226        0.16608
C         -1.01994        0.75844        0.03835
C         -0.38181        1.98697        0.06034
C         -1.02883        3.25346        0.17135
N         -1.53181        4.29413        0.26001
C          1.04064        1.87890       -0.04587
C          1.91552        3.00724       -0.02950
N          2.63171        3.91814       -0.02289
C          1.46538        0.57268       -0.14467
S          0.13212       -0.52075       -0.13877
C          2.83295        0.08263       -0.28187
S          3.92377        0.76663       -1.43691
C          5.18034       -0.29822       -0.98482
H          6.14970       -0.24585       -1.46069
C          4.79574       -1.15851        0.00763
C          5.65661       -2.14850        0.57294
N          6.36049       -2.94991        1.02448
C          3.43745       -0.94136        0.41666
C          2.80006       -1.68002        1.45929
N          2.27960       -2.27647        2.30542
C         -3.13942       -0.66185       -0.16906
C         -2.86515       -1.98968       -0.78886
O         -1.82265       -2.47030       -1.16701
N         -4.11289       -2.60979       -0.84656
H         -4.23567       -3.54221       -1.21631
C         -5.17467       -1.85544       -0.32169
O         -6.32580       -2.20196       -0.26466
C         -4.52390       -0.59018        0.11323
C         -4.91064        0.58262        0.67693
H         -5.89836        0.89908        0.98378
S         -3.55863        1.62948        0.86348
