42
COMP61_200031.log	Energy: -1910938.1894308
C         -3.20622        0.49850        0.02195
C         -1.75899        0.38229        0.04180
C         -0.78717        1.34576       -0.00352
Cl        -1.10697        3.03113       -0.26244
C          0.55932        0.82753        0.04445
C          1.79374        1.49586        0.06464
C          1.92549        2.96307        0.35008
O          1.47524        3.49978        1.33019
O          2.66790        3.57789       -0.57745
C          2.92322        4.96492       -0.33422
C          2.94906        0.72544       -0.03128
S          4.58023        1.35885       -0.11968
C          5.22647       -0.24571       -0.17774
H          6.29056       -0.39809       -0.29497
C          4.28464       -1.21264       -0.13456
Cl         4.70154       -2.87828       -0.34915
C          2.93433       -0.69659       -0.01373
C          1.70707       -1.35979        0.09868
C          1.59334       -2.82002        0.42059
O          2.19595       -3.36879        1.30732
O          0.66393       -3.40490       -0.34297
C          0.33700       -4.75717       -0.00762
C          0.54201       -0.58894        0.05860
S         -1.07721       -1.23051        0.07486
C         -4.15374       -0.49334       -0.07386
C         -4.33747       -1.94037       -0.20504
O         -3.56973       -2.88161       -0.25969
N         -5.74862       -2.06849       -0.25289
H         -6.19497       -2.96917       -0.32704
C         -6.39114       -0.85377       -0.14883
H         -7.47049       -0.78900       -0.16401
C         -5.45244        0.11879       -0.03895
C         -5.28662        1.56506        0.09672
O         -6.06944        2.48557        0.17378
N         -3.87750        1.70596        0.12690
H         -3.43958        2.60804        0.22524
H          3.55447        5.29296       -1.15849
H          3.43398        5.09665        0.62214
H          1.98381        5.52193       -0.32046
H         -0.54810       -4.99405       -0.59555
H          0.12679       -4.84373        1.06011
H          1.16806       -5.41632       -0.26899
