44
COMP67_210003.log	Energy: -2036175.4831892
C         -2.41282       -0.67275       -0.12660
C         -1.01964       -0.98805        0.07128
C         -0.46658       -2.10699        0.64068
F         -1.17409       -3.12173        1.11884
C          0.94268       -2.08198        0.72042
Cl         1.84181       -3.38126        1.40974
C          1.48520       -0.92144        0.21493
S          0.23628        0.13608       -0.35303
C          2.89304       -0.58675        0.15610
C          3.37393        0.61427       -0.21536
C          4.76593        1.01359       -0.30594
C          5.95187        0.34362       -0.11186
Cl         6.14138       -1.31306        0.32959
C          7.09394        1.16838       -0.32123
F          8.32710        0.69692       -0.18133
C          6.79873        2.44694       -0.66901
H          7.49137        3.24827       -0.87816
S          5.09621        2.66702       -0.74769
C         -3.02707        0.54454       -0.10275
C         -2.74458        1.96084        0.11170
O         -1.70894        2.56930        0.22093
N         -4.07982        2.53998        0.13595
C         -4.46008        3.88120        0.29839
O         -5.61840        4.22412        0.28699
O         -3.41318        4.67258        0.46246
C         -3.72644        6.05656        0.63965
C         -5.05640        1.55457       -0.03916
H         -6.09961        1.83304       -0.01330
C         -4.44508        0.36451       -0.19667
C         -4.73505       -1.06054       -0.33127
O         -5.76232       -1.65972       -0.50628
N         -3.41041       -1.66142       -0.26438
C         -3.14850       -2.96161       -0.76786
O         -2.23660       -3.21492       -1.51279
O         -4.04300       -3.81636       -0.30533
C         -3.93355       -5.14389       -0.82558
H          3.56340       -1.38685        0.44653
H          2.66709        1.40109       -0.47744
H         -2.76437        6.55052        0.76406
H         -4.34969        6.19594        1.52555
H         -4.24952        6.44457       -0.23702
H         -4.74660       -5.69935       -0.36151
H         -2.96584       -5.57418       -0.55939
H         -4.04342       -5.13622       -1.91218
