46
COMP71_000000.log	Energy: -1673572.3799483
C         -0.71208        1.47063       -0.25159
C          0.66985        1.02200       -0.12343
C          1.22744       -0.16088       -0.48903
H          0.63745       -0.96381       -0.90244
C          2.64568       -0.22803       -0.26592
C          3.50553       -1.30497       -0.52833
C          3.02072       -2.60713       -1.10474
C          4.84906       -1.09292       -0.23639
S          6.13252       -2.26389       -0.47881
C          7.31033       -1.14613        0.14625
H          8.34817       -1.44633        0.20495
C          6.78374        0.04174        0.51354
H          7.37977        0.84589        0.92749
C          5.35664        0.11801        0.30384
C          4.49493        1.19219        0.57079
C          4.96967        2.49342        1.15822
C          3.15274        0.98071        0.27471
S          1.86950        2.14188        0.53128
C         -1.92690        0.80337       -0.20357
C         -2.15843       -0.64680        0.01842
O         -1.26233       -1.47824        0.07041
C         -3.57735       -1.04595        0.16172
C         -3.97874       -2.33032        0.43199
C         -3.15492       -3.56014        0.65418
S         -5.70664       -2.40733        0.49113
C         -5.90757       -0.72481        0.14895
C         -7.26736       -0.10753        0.05129
C         -4.67959       -0.13338        0.00222
C         -4.46808        1.29298       -0.28620
O         -5.37634        2.09513       -0.44312
C         -3.04293        1.70196       -0.35223
C         -2.67468        3.00155       -0.52168
H         -3.33819        3.84592       -0.64788
S         -0.97537        3.17700       -0.50627
H          1.94893       -2.74645       -0.94820
H          3.53350       -3.45578       -0.63875
H          3.21540       -2.65734       -2.18290
H          6.04561        2.63052        1.03039
H          4.74915        2.54575        2.23133
H          4.47237        3.34439        0.67923
H         -2.41547       -3.38710        1.44017
H         -2.59651       -3.81231       -0.25201
H         -3.78031       -4.41270        0.93307
H         -8.05465       -0.85020        0.20565
H         -7.40405        0.35769       -0.92863
H         -7.37812        0.68700        0.79475
