34
COMP67_310001.log	Energy: -1289220.3224509
C          3.32476        0.57425       -0.20071
C          1.95970        0.10925       -0.22056
C          1.51264       -1.16756       -0.43321
F          2.30001       -2.18918       -0.70009
C          0.09786       -1.31345       -0.39656
C         -0.53882       -2.56832       -0.61075
N         -1.07045       -3.58396       -0.78565
C         -0.54778       -0.10995       -0.15516
S          0.60462        1.16685        0.03105
C         -1.95241        0.22886       -0.03015
C         -2.97610       -0.64519       -0.09489
C         -4.38224       -0.30641        0.02453
C         -5.02903        0.90674        0.20490
C         -4.39861        2.17712        0.31986
N         -3.87591        3.20845        0.41231
C         -6.44591        0.75143        0.26430
F         -7.24575        1.79640        0.43306
C         -6.87537       -0.52997        0.13380
H         -7.89358       -0.88899        0.14740
S         -5.53844       -1.59129       -0.06723
C          4.46946       -0.06091        0.18487
C          4.96588       -1.28297        0.82191
O          4.43121       -2.30714        1.18633
N          6.35224       -1.00232        0.96567
H          6.98816       -1.66766        1.37702
C          6.68559        0.25616        0.51463
H          7.69943        0.62473        0.59289
C          5.56737        0.85338        0.02909
C          5.05657        2.11804       -0.50095
O          5.58593        3.15438       -0.83257
N          3.65700        1.87149       -0.57700
H          3.04845        2.49847       -1.08306
H         -2.15328        1.28384        0.12963
H         -2.77508       -1.70112       -0.24882
