42
COMP67_040002.log	Energy: -1286976.2609769
C         -2.38504       -0.61422       -0.10074
C         -0.97214       -0.72874        0.08349
C         -0.30301       -1.70960        0.80111
O         -0.87694       -2.71433        1.48707
C          1.09712       -1.53011        0.82888
H          1.75862       -2.19671        1.36731
C          1.49780       -0.40875        0.13993
S          0.14959        0.45266       -0.52254
C          2.83620        0.11411       -0.07255
C          3.96598       -0.53375        0.26310
C          5.31032       -0.01886        0.07578
C          5.73024        1.20155       -0.39483
H          5.05325        1.99328       -0.69926
C          7.14835        1.32127       -0.43240
O          7.82808        2.41900       -0.85190
C          7.79296        0.19840        0.00910
H          8.85908        0.04280        0.08094
S          6.67061       -1.01854        0.47566
C         -3.19678        0.48024       -0.18912
C         -3.16739        1.92600       -0.00164
O         -2.28428        2.74586        0.14263
N         -4.56075        2.23423       -0.01470
O         -5.02984        3.51339       -0.09921
C         -4.99386        4.14413        1.18424
C         -5.36914        1.14474       -0.24989
H         -6.44079        1.26833       -0.31082
C         -4.56449        0.05611       -0.35269
C         -4.59113       -1.38979       -0.43713
O         -5.45367       -2.19438       -0.68940
N         -3.21075       -1.76977       -0.13542
O         -2.71062       -2.82029       -0.91172
C         -3.07788       -4.09377       -0.38655
H         -1.83864       -2.59459        1.46971
H          2.89949        1.09332       -0.54195
H          3.89359       -1.52398        0.70853
H          7.19812        3.09732       -1.11967
H         -5.41398        5.13697        1.01876
H         -3.96394        4.22393        1.54042
H         -5.60854        3.58965        1.90198
H         -2.63244       -4.80513       -1.08362
H         -4.16221       -4.21053       -0.36938
H         -2.65487       -4.25950        0.60990
