29
COMP22_110400.log	Energy: -1499283.5903560
C          2.03651        0.40303        0.20965
C          0.64348       -0.02326        0.35627
C          0.19402       -1.18548        0.90879
F          0.96019       -2.09914        1.49204
C         -1.21199       -1.34274        0.83147
F         -1.82788       -2.41520        1.33325
C         -1.85836       -0.30538        0.22211
S         -0.69632        0.89723       -0.26549
C         -3.28208       -0.15579        0.00355
S         -4.44615       -1.34428        0.52940
C         -5.77321       -0.43231       -0.09296
H         -6.78872       -0.78762       -0.00247
C         -5.34477        0.71718       -0.67002
F         -6.12443        1.63214       -1.23979
C         -3.93289        0.87352       -0.61590
F         -3.32256        1.94121       -1.13293
C          3.01734       -0.49070       -0.34350
N          2.78320       -1.71939       -0.79002
S          4.21069       -2.30561       -1.31627
N          5.17602       -1.02583       -1.00533
C          4.39637       -0.09110       -0.47221
C          4.81301        1.21003       -0.06451
H          5.85154        1.50675       -0.16852
C          3.86252        2.04062        0.43618
O          4.08181        3.31333        0.86658
C          2.47511        1.64843        0.57864
O          1.62093        2.55080        1.09539
H          5.01599        3.54000        0.78567
H          2.11518        3.35973        1.29635
