37
COMP41_300013.log	Energy: -1522079.3881689
C          1.37819       -1.42410       -0.14026
C         -0.00243       -0.96211       -0.06715
C         -1.14103       -1.71830        0.09829
C         -1.19667       -3.12886        0.28875
N         -1.32150       -4.27188        0.44642
C         -2.36043       -0.94547        0.07550
C         -3.67146       -1.40221        0.21348
H         -3.87824       -2.45750        0.36217
C         -4.68117       -0.45556        0.15159
S         -6.40258       -0.75280        0.28988
C         -6.74889        0.92904        0.09213
H         -7.77306        1.27727        0.10671
C         -5.63735        1.69456       -0.07097
C         -5.66013        3.10947       -0.25373
N         -5.63969        4.25888       -0.40501
C         -4.41102        0.92259       -0.04147
C         -3.10119        1.37670       -0.17385
H         -2.89332        2.43224       -0.31906
C         -2.08994        0.42821       -0.11518
S         -0.37821        0.73837       -0.23623
C          2.56085       -0.72312       -0.06807
C          3.00285        0.68060        0.14535
O          2.34904        1.66929        0.34991
N          4.42480        0.62411        0.10317
C          5.29080        1.73030        0.31832
O          6.32429        1.64965        0.92210
O          4.79415        2.81779       -0.25520
C          5.54813        4.01261       -0.02978
C          4.92913       -0.69670       -0.10101
O          6.08238       -1.00849       -0.20274
C          3.71181       -1.53050       -0.20390
C          3.44971       -2.84858       -0.39439
H          4.14401       -3.66797       -0.52115
S          1.75393       -3.11741       -0.40048
H          4.97274        4.80817       -0.49998
H          6.53615        3.92618       -0.48710
H          5.65880        4.19596        1.04106
