48
COMP92_200002.log	Energy: -2007264.7491060
C          0.49047       -0.22453        0.24999
C         -0.94415       -0.40143        0.56617
C         -1.50475       -0.60999        1.79125
Cl        -0.58673       -0.62317        3.26211
C         -2.91621       -0.77746        1.76823
H         -3.51827       -0.91538        2.65793
C         -3.42053       -0.70855        0.50005
S         -2.15787       -0.45256       -0.66555
C         -4.80564       -0.83817        0.06918
S         -5.89279       -1.91430        0.89382
C         -7.19844       -1.49066       -0.14510
H         -8.17909       -1.92604       -0.01886
C         -6.79806       -0.58583       -1.08034
Cl        -7.85135        0.06286       -2.29692
C         -5.43230       -0.20241       -0.96779
H         -4.95711        0.52964       -1.60944
C          1.24658       -1.40362        0.04629
C          2.58792       -1.35196       -0.23533
C          3.33226       -2.62487       -0.44389
O          2.82329       -3.71872       -0.36337
N          4.69337       -2.46734       -0.73126
O          5.37057       -3.61026       -1.05803
C          5.96609       -4.20003        0.09957
C          5.42459       -1.27603       -0.82252
O          6.61282       -1.28054       -1.04882
C          4.63333       -0.03372       -0.60483
C          5.26770        1.18430       -0.68033
H          6.33031        1.21189       -0.89580
C          4.53902        2.36934       -0.47627
C          3.19156        2.32151       -0.19883
C          2.47011        3.60174        0.02052
O          2.99229        4.69044       -0.05914
N          1.11480        3.45657        0.31994
O          0.45273        4.60513        0.65735
C         -0.13821        5.21386       -0.49255
C          0.35375        2.27922        0.38712
O         -0.83480        2.33634        0.59697
C          1.11763        1.01153        0.16721
C          2.50938        1.08146       -0.11633
C          3.24792       -0.10590       -0.32317
H          0.75818       -2.36978        0.11777
H          6.46722       -5.09247       -0.27601
H          5.19829       -4.48267        0.82560
H          6.69921       -3.51950        0.54235
H          5.02361        3.33809       -0.53088
H         -0.62863        6.10751       -0.10592
H         -0.88015        4.54687       -0.94092
H          0.63165        5.49607       -1.21659
