34
COMP62_020000.log	Energy: -1626550.6125318
C          1.94142        0.66384       -0.11883
C          0.57745        0.17720       -0.08776
C          0.24551       -1.13982        0.13746
H          0.98131       -1.91992        0.31136
C         -1.15191       -1.35126        0.10948
Cl        -1.85093       -2.91064        0.38519
C         -1.89305       -0.22125       -0.13288
S         -0.84813        1.14180       -0.34396
C         -3.34042       -0.07490       -0.25272
S         -4.21971       -0.83831       -1.54192
C         -5.71229       -0.18595       -0.99361
H         -6.63001       -0.41354       -1.51827
C         -5.56158        0.58667        0.11725
H         -6.36853        1.09030        0.63359
C         -4.20149        0.64686        0.53259
Cl        -3.70788        1.54310        1.93187
C          3.08381       -0.09580        0.00276
C          3.56327       -1.45577        0.17659
O          3.00183       -2.53212        0.32077
N          4.97736       -1.30974        0.15637
C          5.87601       -2.43485        0.28729
C          5.34193        0.00721       -0.01404
H          6.38666        0.28592       -0.05618
C          4.21956        0.76667       -0.10502
C          3.74864        2.12812       -0.29196
O          4.31832        3.19064       -0.42435
N          2.32403        1.98899       -0.29045
C          1.49090        3.16370       -0.43076
H          5.26067       -3.31567        0.47778
H          6.56477       -2.28791        1.12445
H          6.44785       -2.58987       -0.63295
H          2.17480        4.01264       -0.48831
H          0.83378        3.29469        0.43368
H          0.89641        3.12873       -1.34888
