43
COMP49_000030.log	Energy: -1550052.2094261
C          2.45186        1.16178       -0.10664
C          1.00974        1.03597       -0.09081
C          0.27416       -0.12980       -0.10053
C         -1.10876        0.13652       -0.08742
C         -1.41949        1.47601       -0.06803
S         -0.02095        2.46143       -0.06442
C         -2.85619        1.63112       -0.07106
C         -3.44171        0.38723       -0.08110
C         -2.37791       -0.69663       -0.07776
C         -2.48703       -1.62077       -1.29341
O         -1.63915       -1.77870       -2.13042
O         -3.67863       -2.23075       -1.29247
C         -3.88039       -3.16952       -2.35055
C         -2.36609       -1.57725        1.17986
O         -1.94352       -2.70648        1.18996
O         -2.81333       -0.92287        2.25016
C         -2.71803       -1.63842        3.48416
C         -4.85821        0.43616       -0.07896
C         -5.30869        1.72587       -0.06605
H         -6.33350        2.07087       -0.06674
S         -4.02062        2.89175       -0.05606
C          3.42710        0.19686       -0.05017
C          3.51897       -1.27839        0.05541
O          2.65269       -2.12364        0.12105
N          4.89453       -1.55819        0.07035
C          5.43555       -2.89685        0.15632
C          5.70499       -0.42096       -0.01502
O          6.91347       -0.43052       -0.01899
C          4.74988        0.71284       -0.09129
C          4.82419        2.06114       -0.17916
H          5.69589        2.69885       -0.22249
S          3.22879        2.73102       -0.22018
H          0.72918       -1.11352       -0.12031
H         -4.87662       -3.58066       -2.19249
H         -3.12666       -3.95829       -2.30209
H         -3.81831       -2.66981       -3.31993
H         -3.11869       -0.96520        4.24065
H         -1.67547       -1.88399        3.69928
H         -3.30212       -2.56025        3.43717
H         -5.50619       -0.43068       -0.09213
H          4.60292       -3.58155        0.32078
H          6.14401       -2.95923        0.98557
H          5.95251       -3.16037       -0.77038
