58
COMP81_200013.log	Energy: -2152285.5751775
C         -0.90450       -0.04198        0.05784
C         -2.37227       -0.15887        0.08247
C         -3.29643        0.66098        0.64716
Cl        -2.91779        2.08135        1.56756
C         -4.66421        0.23439        0.47686
C         -5.83126        0.84491        0.93224
H         -5.78601        1.77070        1.49625
C         -7.03723        0.22932        0.63303
S         -8.63401        0.79277        1.08222
C         -9.37536       -0.56715        0.28937
H        -10.45069       -0.67901        0.28786
C         -8.47330       -1.39516       -0.27804
Cl        -8.89983       -2.83524       -1.14412
C         -7.10154       -0.97772       -0.10675
C         -5.93390       -1.59029       -0.55823
H         -5.97832       -2.51619       -1.12243
C         -4.72872       -0.97463       -0.25790
S         -3.13428       -1.52896       -0.71051
C         -0.10371       -1.14516        0.37078
C          1.28050       -1.05961        0.32979
C          1.89274        0.14125       -0.03649
C          3.28944        0.58578       -0.08047
C          3.23514        2.05348       -0.43057
O          4.15375        2.80126       -0.65167
N          1.86741        2.38738       -0.57270
C          1.34301        3.63954       -0.92506
O          0.17882        3.81624       -1.19742
O          2.26835        4.58846       -0.90477
C          1.80083        5.88743       -1.27372
C          1.06868        1.24762       -0.31980
C         -0.31293        1.17592       -0.29451
C          4.47109       -0.08113        0.07300
C          4.56871       -1.58345       -0.06218
O          3.69235       -2.36305       -0.33980
N          5.93417       -1.91632        0.08283
C          6.49815       -3.19538       -0.02366
O          7.68876       -3.39031       -0.09849
O          5.57398       -4.14611       -0.01229
C          6.07881       -5.47475       -0.15738
C          6.69178       -0.74207        0.31360
C          8.04996       -0.64580        0.57396
C          8.56727        0.61665        0.85482
H          9.62984        0.71667        1.05415
C          7.74538        1.73936        0.89063
C          6.38687        1.63026        0.62046
C          5.84243        0.38182        0.30468
H         -0.56854       -2.08150        0.66301
H          1.87583       -1.92632        0.56886
H          2.68337        6.52458       -1.24413
H          1.04723        6.23728       -0.56459
H          1.37090        5.86935       -2.27743
H         -0.91299        2.03472       -0.55405
H          5.19850       -6.11535       -0.13740
H          6.75510       -5.72066        0.66434
H          6.60954       -5.58041       -1.10611
H          8.68029       -1.52237        0.55499
H          8.16515        2.71257        1.12303
H          5.76127        2.50852        0.63689
