32
COMP52_240400.log	Energy: -2171294.0887368
C         -1.28176       -0.01653        0.36428
C          0.09443        0.43704        0.26292
C          0.61499        1.69784        0.36175
Cl        -0.30246        3.13748        0.66956
C          2.03169        1.76149        0.22407
O          2.76179        2.89453        0.29483
C          2.60861        0.53100        0.02873
S          1.37714       -0.70468       -0.03239
C          4.01748        0.23432       -0.12108
S          5.25387        1.46886       -0.09668
C          6.50665        0.31541       -0.32662
H          7.54206        0.61808       -0.38477
C          6.00564       -0.94387       -0.41674
Cl         6.94649       -2.38535       -0.65160
C          4.58542       -1.00359       -0.30053
O          3.84861       -2.13469       -0.35382
C         -1.76663       -1.04486        1.14782
O         -1.07153       -1.81297        2.00175
N         -3.09558       -1.30054        1.04999
C         -3.65137       -0.48421        0.19684
S         -2.59649        0.66074       -0.55465
C         -5.07163       -0.50817       -0.11364
S         -6.13295       -1.65770        0.62916
C         -7.43290       -0.96719       -0.26916
H         -8.44288       -1.34166       -0.18173
C         -6.96492        0.05926       -1.04639
O         -7.66583        0.84531       -1.88792
N         -5.63190        0.31491       -0.95620
H          2.17242        3.64727        0.44632
H          4.43087       -2.89118       -0.51277
H         -0.15093       -1.51467        2.02536
H         -8.59128        0.57493       -1.87363
