50
COMP77_040003.log	Energy: -1955897.1486722
C         -0.16345       -1.51973        0.42323
C          1.12450       -0.86222        0.49474
C          1.59295        0.10434        1.37742
O          0.88198        0.75254        2.30266
C          2.99361        0.32351        1.27354
H          3.50167        1.04212        1.90461
C          3.60227       -0.45245        0.32377
S          2.44916       -1.47769       -0.46976
C          4.99114       -0.48945       -0.10285
C          5.94699        0.34109        0.34953
C          7.34331        0.30185       -0.04785
C          8.00386       -0.58474       -0.86290
H          7.52654       -1.43676       -1.33635
C          9.38579       -0.27588       -1.01101
O         10.26864       -0.98732       -1.75819
C          9.76480        0.83493       -0.30884
H         10.75153        1.27039       -0.25665
S          8.43319        1.51689        0.54004
C         -1.47263       -1.05124        0.42083
C         -1.91008        0.34236        0.45877
O         -1.19474        1.28694        0.79054
C         -3.32624        0.57653        0.08199
C         -3.87488        1.81991       -0.11782
C         -3.21179        3.15979       -0.11116
O         -3.57818        4.07613        0.58296
O         -2.22659        3.21075       -1.00201
C         -1.44637        4.40863       -0.97960
S         -5.56568        1.72769       -0.38385
C         -5.55243        0.00479       -0.29702
C         -6.80443       -0.74005       -0.61514
O         -6.86170       -1.76564       -1.23967
O         -7.86873       -0.06036       -0.16193
C         -9.13836       -0.63890       -0.47429
C         -4.29451       -0.47380       -0.02233
C         -3.90875       -1.89243        0.22349
O         -4.70690       -2.79531        0.36356
C         -2.44250       -2.10917        0.29089
C         -1.88086       -3.34373        0.20597
H         -2.40257       -4.28472        0.09721
S         -0.16999       -3.26082        0.27236
H          0.00389        0.96042        1.90899
H          5.24733       -1.24846       -0.83885
H          5.67843        1.11227        1.06859
H          9.80849       -1.72552       -2.17263
H         -0.69309        4.27836       -1.75492
H         -0.97392        4.52580       -0.00183
H         -2.07288        5.27838       -1.18980
H         -9.87886        0.05379       -0.07709
H         -9.23291       -1.61841       -0.00042
H         -9.25262       -0.75026       -1.55500
