50
COMP91_000021.log	Energy: -1478386.5817158
C          1.13683       -0.17311        0.01220
C         -0.34355       -0.12758        0.06906
C         -1.18940        0.09478       -0.96087
H         -0.86494        0.32492       -1.96839
C         -2.57309       -0.00245       -0.57589
C         -3.70927        0.18704       -1.36635
O         -3.60043        0.51966       -2.68926
C         -3.48283        1.92163       -2.90790
C         -4.95333        0.01649       -0.77160
S         -6.50730        0.18930       -1.55159
C         -7.32200       -0.18432       -0.05389
H         -8.40384       -0.19302       -0.03173
C         -6.48322       -0.43505        0.97511
H         -6.80692       -0.67057        1.98143
C         -5.09692       -0.33192        0.59348
C         -3.95875       -0.51770        1.38447
O         -4.06154       -0.84445        2.70982
C         -4.16916       -2.24460        2.93871
C         -2.71661       -0.34324        0.79000
S         -1.16422       -0.50392        1.57430
C          1.72037       -1.42897       -0.28536
C          3.07973       -1.58472       -0.37050
C          3.64579       -2.92515       -0.68411
O          2.97165       -3.91468       -0.87397
N          5.03275       -2.97849       -0.74765
H          5.43066       -3.88644       -0.95942
C          5.94490       -1.94685       -0.55957
O          7.13818       -2.14417       -0.64741
C          5.34756       -0.61974       -0.24816
C          6.17294        0.46188       -0.04579
H          7.24638        0.32562       -0.12050
C          5.61921        1.71947        0.24985
C          4.25506        1.87767        0.34141
C          3.71023        3.22309        0.65560
O          4.39657        4.20695        0.83762
N          2.32909        3.28521        0.73204
H          1.93745        4.19288        0.95634
C          1.39383        2.26799        0.55960
O          0.21406        2.51321        0.68009
C          1.96017        0.92311        0.23056
C          3.37552        0.78144        0.13908
C          3.93974       -0.48013       -0.16052
H         -3.39680        2.05949       -3.98676
H         -2.59120        2.32410       -2.41162
H         -4.36910        2.45157       -2.53895
H         -4.24205       -2.37657        4.01925
H         -3.28493       -2.77344        2.56277
H         -5.06514       -2.65511        2.45693
H          1.07828       -2.28771       -0.45211
H          6.25301        2.58479        0.41164
