35
COMP27_030300.log	Energy: -1435899.5670555
C          2.71162        0.25959       -0.02077
C          1.29122        0.00058        0.24976
C          0.77773       -0.92152        1.13984
C          1.59816       -1.72798        1.98879
N          2.26570       -2.37531        2.68047
C         -0.64305       -0.94754        1.16522
H         -1.21291       -1.57422        1.83958
C         -1.20552       -0.06650        0.27751
S          0.01914        0.81657       -0.57474
C         -2.61265        0.17812       -0.00793
C         -3.58642       -0.70772        0.25779
C         -5.00399       -0.45521        0.04328
C         -5.66371        0.73655       -0.10157
H         -5.18687        1.70642       -0.03240
C         -7.06441        0.56631       -0.31650
C         -7.98258        1.64823       -0.49516
N         -8.72241        2.52834       -0.64110
C         -7.44900       -0.75110       -0.32153
H         -8.44693       -1.14356       -0.45735
S         -6.11513       -1.79030       -0.07005
C          3.55877       -0.82385       -0.42527
N          3.16425       -2.08046       -0.63292
S          4.49026       -2.91121       -1.05220
N          5.60649       -1.73454       -1.01133
C          4.96105       -0.62238       -0.65186
C          5.53801        0.66627       -0.50908
H          6.59582        0.81762       -0.68681
C          4.71669        1.69887       -0.14740
C          5.27328        3.01476       -0.00138
N          5.74290        4.06800        0.10604
C          3.30470        1.49873        0.10631
C          2.53179        2.62915        0.53698
N          1.91664        3.54678        0.88568
H         -2.86147        1.13059       -0.47045
H         -3.32110       -1.68776        0.64935
