43
COMP21_200430.log	Energy: -2160779.1906958
C         -2.91149       -0.38259       -0.33443
C         -1.44672       -0.24568       -0.31320
C         -0.72898        0.89612       -0.18616
Cl        -1.50925        2.43015        0.01198
C          0.70327        0.69014       -0.12200
C          1.75537        1.60965       -0.02685
C          1.61077        3.08890       -0.20397
O          2.07293        3.91218        0.55117
O          1.00150        3.37927       -1.35404
C          0.79907        4.77120       -1.60130
C          3.04058        1.11250        0.17942
S          4.46639        2.09062        0.45108
C          5.44919        0.66830        0.54395
H          6.50520        0.75241        0.76089
C          4.75735       -0.48083        0.38788
Cl         5.51438       -2.02576        0.59481
C          3.34323       -0.27310        0.14510
C          2.30789       -1.18785       -0.08697
C          2.56050       -2.62911       -0.41194
O          3.28196       -3.00655       -1.29988
O          1.82356       -3.43992        0.35871
C          1.93067       -4.83267        0.05449
C          1.00411       -0.69677       -0.14787
S         -0.43884       -1.66803       -0.32050
C         -3.68076       -0.23301        0.86660
N         -3.19164        0.02026        2.07481
S         -4.47048        0.09755        3.08513
N         -5.68490       -0.19106        2.03154
C         -5.11595       -0.35718        0.84243
C         -5.79449       -0.64098       -0.38002
H         -6.87550       -0.73610       -0.39282
C         -5.03811       -0.78695       -1.49828
O         -5.51929       -1.05987       -2.74171
C         -3.59318       -0.66096       -1.48705
O         -2.93762       -0.81846       -2.64964
H          0.29701        4.82544       -2.56607
H          1.75661        5.29578       -1.63219
H          0.17370        5.20635       -0.81779
H          1.25311       -5.33390        0.74409
H          2.95763       -5.17271        0.20598
H          1.63907       -5.02079       -0.98127
H         -6.48176       -1.12298       -2.72395
H         -3.58787       -1.00260       -3.34410
