31
COMP44_400003.log	Energy: -1404338.9701546
C          0.02649        1.27854       -0.19773
C         -1.25303        0.61061       -0.08647
C         -2.42782        1.14781        0.40466
O         -2.63115        2.37157        0.93598
C         -3.51034        0.23617        0.30002
S         -5.18305        0.27911        0.73971
C         -5.38301       -1.35193        0.15252
H         -6.35556       -1.82298        0.20560
C         -4.23224       -1.89260       -0.34251
O         -4.03610       -3.12365       -0.86935
C         -3.14632       -0.96939       -0.25973
S         -1.47029       -1.04261       -0.65542
C          1.31163        0.80443       -0.12218
C          1.97050       -0.48851        0.16496
O          1.49245       -1.56012        0.42515
N          3.37149       -0.19342        0.11848
C          4.40358       -1.12827        0.38935
O          5.40106       -0.85717        0.99974
O          4.10264       -2.30692       -0.14111
C          5.03281       -3.35188        0.15042
C          3.64959        1.17884       -0.15193
O          4.73631        1.67609       -0.26276
C          2.31025        1.79425       -0.30136
C          1.83382        3.04269       -0.52198
H          2.37395        3.96837       -0.66309
S          0.10560        3.00246       -0.55292
H         -1.78720        2.79379        1.14903
H         -4.86059       -3.62299       -0.83695
H          4.60458       -4.24879       -0.29398
H          5.14482       -3.47263        1.23016
H          6.00619       -3.12740       -0.29144
