43
COMP41_200023.log	Energy: -2126812.8794182
C         -1.90975       -1.35772       -0.66145
C         -0.51328       -0.97090       -0.48482
C          0.47710       -1.63466        0.17395
Cl         0.19900       -3.12330        1.01465
C          1.75109       -0.95271        0.15690
C          2.99206       -1.29472        0.71325
O          3.20278       -2.44129        1.41878
C          3.58821       -3.55704        0.61977
C          4.03980       -0.39571        0.55479
S          5.64317       -0.64449        1.20300
C          6.17230        0.86163        0.51960
H          7.19498        1.18859        0.64766
C          5.19889        1.52126       -0.14602
Cl         5.49453        3.03974       -0.93001
C          3.92518        0.83109       -0.14589
C          2.68717        1.17128       -0.70310
O          2.47382        2.31736       -1.40768
C          2.06993        3.42880       -0.60838
C          1.63871        0.27122       -0.54566
S          0.04320        0.53027       -1.18930
C         -3.04547       -0.64410       -0.39561
C         -3.38384        0.66728        0.21044
O         -2.66202        1.54699        0.59568
N         -4.81225        0.69993        0.19944
C         -5.59827        1.80377        0.62003
O         -6.58374        2.17453        0.04389
O         -5.08990        2.32874        1.72799
C         -5.74834        3.51085        2.18908
C         -5.40110       -0.46775       -0.37970
O         -6.57561       -0.68931       -0.48209
C         -4.24117       -1.31092       -0.74642
C         -4.04800       -2.54023       -1.29116
H         -4.78283       -3.25660       -1.63181
S         -2.36207       -2.88349       -1.38146
H          3.72503       -4.38983        1.31024
H          4.52840       -3.35458        0.09341
H          2.80762       -3.80835       -0.10660
H          1.92712        4.25904       -1.30046
H          2.84564        3.68821        0.11993
H          1.12938        3.21550       -0.08722
H         -5.20212        3.81388        3.08079
H         -6.79247        3.29664        2.42706
H         -5.70388        4.29145        1.42629
