44
COMP51_000330.log	Energy: -1855218.0985999
C         -1.57663       -0.79666        0.08677
C         -0.14086       -0.57834        0.06738
C          0.47014        0.63581        0.11683
H         -0.04746        1.58065        0.20227
C          1.90177        0.55016        0.05924
C          2.83736        1.60610        0.07974
C          2.34579        3.01254        0.19049
O          1.19034        3.34515        0.33877
O          3.34160        3.90019        0.10887
C          2.96932        5.27468        0.22284
C          4.19442        1.27764       -0.00072
S          5.55938        2.37638        0.00356
C          6.66852        1.04748       -0.11207
H          7.73142        1.24995       -0.14514
C          6.07833       -0.16406       -0.15841
H          6.60662       -1.10124       -0.23773
C          4.63906       -0.07497       -0.09531
C          3.70415       -1.12651       -0.11093
C          4.18280       -2.53897       -0.21500
O          5.32924       -2.88871       -0.38243
O          3.17292       -3.40722       -0.10065
C          3.50317       -4.79354       -0.20211
C          2.34424       -0.79658       -0.03265
S          0.99437       -1.90784       -0.03870
C         -2.31494       -1.95893        0.23034
C         -1.77157       -3.27280        0.39854
N         -1.33625       -4.33899        0.52946
N         -3.67756       -1.82209        0.21023
C         -4.00238       -0.57505        0.05123
S         -2.67497        0.53368       -0.09320
C         -5.38046       -0.11277       -0.00888
S         -6.70932       -1.22830        0.13723
C         -7.78319        0.09461       -0.03859
H         -8.85675       -0.02899       -0.02298
C         -7.07614        1.25740       -0.19203
C         -7.68264        2.54447       -0.36449
N         -8.19963        3.57150       -0.50284
N         -5.71025        1.13383       -0.17428
H          3.90057        5.83260        0.13865
H          2.49251        5.45853        1.18797
H          2.27942        5.54825       -0.57822
H          2.55747       -5.32131       -0.08970
H          4.20183       -5.07336        0.58911
H          3.95453       -5.00290       -1.17424
