30
COMP52_310100.log	Energy: -1770499.5177478
C         -1.14843       -0.11661       -0.00130
C          0.21203        0.37051       -0.00109
C          0.66527        1.67803       -0.00241
C         -0.14997        2.84449       -0.00428
N         -0.80658        3.80043       -0.00588
C          2.08540        1.74538       -0.00177
F          2.72316        2.91360       -0.00273
C          2.72566        0.54186        0.00008
S          1.54666       -0.74111        0.00117
C          4.15237        0.29246        0.00126
S          5.34043        1.56862        0.00711
C          6.64114        0.45616        0.00580
H          7.66408        0.80519        0.00839
C          6.21359       -0.84496        0.00101
C          7.06920       -1.98623       -0.00142
N          7.76597       -2.91179       -0.00343
C          4.79015       -0.91634       -0.00154
F          4.14565       -2.08079       -0.00586
C         -1.56469       -1.42838       -0.00131
F         -0.72062       -2.44966       -0.00098
N         -2.87963       -1.68686       -0.00092
C         -3.53767       -0.55499       -0.00060
S         -2.57629        0.88340       -0.00108
C         -4.98703       -0.48146        0.00028
S         -5.96535       -1.91182        0.00237
C         -7.36188       -0.90958        0.00278
H         -8.36592       -1.30558        0.00398
C         -6.96933        0.39642        0.00134
F         -7.80384        1.42126        0.00122
N         -5.64250        0.64891        0.00004
