46
COMP77_030002.log	Energy: -1835027.5992251
C         -1.11095        1.96561       -0.27243
C          0.28916        1.70287        0.06440
C          1.01561        2.24172        1.10684
C          0.45154        3.12478        2.07948
N          0.00854        3.84459        2.87291
C          2.37687        1.82643        1.12292
H          3.08936        2.16747        1.86363
C          2.68148        0.97442        0.09378
S          1.29012        0.69397       -0.90512
C          3.94372        0.32037       -0.21956
C          4.97729        0.22653        0.63272
C          6.26010       -0.37498        0.29591
C          6.80566       -0.63506       -0.93333
H          6.33330       -0.37833       -1.87337
C          8.08784       -1.25669       -0.84695
C          8.86979       -1.62921       -1.98508
N          9.49722       -1.92954       -2.91230
C          8.50413       -1.44956        0.44606
H          9.43315       -1.89064        0.77840
S          7.33976       -0.88380        1.56383
C         -2.19543        1.11996       -0.26080
C         -2.17533       -0.30485        0.17926
O         -1.15734       -0.85286        0.56690
C         -3.48589       -0.97276        0.10953
C         -3.69895       -2.27801        0.46021
O         -2.78073       -3.12550        0.90912
C         -3.16923       -4.45320        1.21741
S         -5.38364       -2.74970        0.25646
C         -5.78931       -1.13247       -0.31275
O         -7.02147       -0.80363       -0.68301
C         -8.06643       -1.74031       -0.48549
C         -4.69783       -0.31048       -0.33702
C         -4.72417        1.10104       -0.75185
O         -5.72246        1.69111       -1.12738
C         -3.40065        1.77381       -0.67382
C         -3.21149        3.08942       -0.98498
H         -3.96912        3.78845       -1.31188
S         -1.57829        3.55529       -0.78900
H          4.02858       -0.12412       -1.20905
H          4.87046        0.60870        1.64572
H         -2.26436       -4.95343        1.55953
H         -3.55858       -4.96411        0.32850
H         -3.92036       -4.46677        2.01628
H         -8.97019       -1.25639       -0.85311
H         -8.18317       -1.97866        0.57831
H         -7.88609       -2.65872       -1.05783
