52
COMP82_320000.log	Energy: -1983607.0118040
C         -0.20057        0.50383        0.06427
C         -1.65991        0.66712        0.02086
C         -2.40026        1.73287       -0.45370
C         -1.83710        2.91410       -1.02216
N         -1.37324        3.87890       -1.46738
C         -3.81121        1.51101       -0.35277
Cl        -4.97010        2.66182       -0.90317
C         -4.13751        0.30077        0.18939
S         -2.69898       -0.57934        0.60342
C         -5.46404       -0.25566        0.43929
S         -6.49013        0.37909        1.69106
C         -7.72681       -0.74637        1.34427
H         -8.65554       -0.74538        1.89773
C         -7.38523       -1.58759        0.31842
C         -8.23950       -2.62037       -0.17353
N         -8.94102       -3.45601       -0.56337
C         -6.07959       -1.29847       -0.19701
Cl        -5.38100       -2.17594       -1.50391
C          0.37678       -0.75101       -0.15555
C          1.75694       -0.93229       -0.12122
C          2.59349        0.15373        0.12989
C          4.05394        0.36801        0.16046
C          4.21900        1.86479        0.36761
O          5.23217        2.52981        0.46769
N          2.95324        2.39415        0.48501
C          2.68621        3.79992        0.67623
C          1.98836        1.41429        0.31907
C          0.62169        1.61079        0.31565
C          5.10343       -0.49706        0.07589
C          4.94001       -2.00962        0.16987
O          3.93024       -2.67170        0.32401
N          6.19917       -2.55123        0.10536
C          6.46263       -3.96659        0.18144
C          7.16191       -1.56041       -0.05617
C          8.52289       -1.75263       -0.21092
C          9.31756       -0.62158       -0.40076
H         10.38970       -0.73983       -0.52526
C          8.74804        0.64662       -0.44079
C          7.37431        0.82426       -0.27733
C          6.55570       -0.28645       -0.06689
H         -0.25516       -1.60330       -0.38616
H          2.17570       -1.91285       -0.28342
H          3.64610        4.31653        0.69090
H          2.16936        3.96817        1.62675
H          2.07053        4.18747       -0.14221
H          0.20302        2.59316        0.49751
H          5.50618       -4.47110        0.32115
H          7.12038       -4.19033        1.02781
H          6.93196       -4.32312       -0.74179
H          8.95603       -2.74717       -0.19227
H          9.37712        1.51669       -0.59767
H          6.94548        1.81374       -0.29811
