56
COMP87_420000.log	Energy: -2010811.9795871
C         -0.47199        0.56037       -0.26075
C          0.98076        0.75641       -0.36228
C          1.70341        1.86384       -0.71790
Cl         1.03601        3.39200       -1.21629
C          3.11894        1.67764       -0.72030
O          4.01274        2.63308       -1.05149
C          3.48545        0.40445       -0.35404
S          2.06742       -0.54421       -0.00861
C          4.80132       -0.18898       -0.21476
C          5.97665        0.42401       -0.47172
C          7.27141       -0.20169       -0.24917
C          7.63168       -1.06979        0.75476
O          6.84940       -1.51395        1.76161
C          9.00281       -1.46636        0.67340
Cl         9.71829       -2.55538        1.81002
C          9.66684       -0.89522       -0.36648
H         10.70212       -1.03895       -0.63955
S          8.63971        0.14594       -1.27218
C         -1.06004       -0.61827       -0.72926
C         -2.43271       -0.83533       -0.63791
C         -3.25595        0.13971       -0.07659
C         -4.69559        0.24920        0.23501
C         -4.83325        1.58822        0.94334
O         -5.82588        2.14552        1.37256
N         -3.57738        2.14827        0.98988
C         -3.29977        3.43868        1.56944
C         -2.63590        1.30959        0.41135
C         -1.27699        1.54182        0.33414
C         -5.75464       -0.56902       -0.02605
C         -5.66347       -1.77238       -0.95612
O         -4.71467       -2.19337       -1.59197
N         -6.91757       -2.32752       -1.01672
C         -7.24111       -3.48161       -1.81751
C         -7.81002       -1.63541       -0.20636
C         -9.14114       -1.94826        0.00385
C         -9.86407       -1.14449        0.88526
H        -10.91209       -1.36189        1.06833
C         -9.25208       -0.07512        1.53016
C         -7.90972        0.22964        1.30408
C         -7.16411       -0.54532        0.41441
H          3.53709        3.44477       -1.28027
H          4.81081       -1.23541        0.08912
H          5.97411        1.43993       -0.85591
H          6.06127       -0.95254        1.80304
H         -0.44061       -1.37465       -1.20094
H         -2.85990       -1.74658       -1.02483
H         -4.24191        3.84239        1.94107
H         -2.88349        4.11755        0.81756
H         -2.59068        3.34457        2.39895
H         -0.84064        2.44548        0.74374
H         -6.33229       -3.78614       -2.33732
H         -8.01588       -3.23553       -2.55122
H         -7.59319       -4.30373       -1.18509
H         -9.60425       -2.79332       -0.49486
H         -9.82409        0.54011        2.21703
H         -7.45232        1.07035        1.80064
