29
COMP22_400200.log	Energy: -1827056.8095737
C          1.59683        0.01083        0.13166
C          0.18421       -0.33898        0.32343
C         -0.35032       -1.40267        1.03009
O          0.32345       -2.33606        1.73287
C         -1.77188       -1.43502        1.01311
H         -2.34031       -2.17805        1.55921
C         -2.32113       -0.43723        0.25888
S         -1.09888        0.56601       -0.44433
C         -3.72757       -0.17316       -0.00372
S         -4.88990       -1.46465        0.02008
C         -6.18373       -0.37688       -0.34095
H         -7.19820       -0.74108       -0.43033
C         -5.72880        0.90317       -0.48728
O         -6.46027        2.00905       -0.77537
C         -4.32219        1.02405       -0.29291
H         -3.79904        1.97152       -0.34318
C          2.55019       -1.02009       -0.19149
N          2.28078       -2.32547       -0.25836
S          3.66871       -3.08161       -0.65605
N          4.65933       -1.80225       -0.75840
C          3.92619       -0.72513       -0.47444
C          4.39874        0.61040       -0.42958
H          5.43305        0.83732       -0.65379
C          3.50752        1.57822       -0.08160
Cl         4.08298        3.21431        0.00319
C          2.12117        1.28837        0.21430
Cl         1.12529        2.61468        0.71663
H          1.11160       -2.58556        1.21788
H         -7.38838        1.76188       -0.86155
