33
COMP42_220003.log	Energy: -2512085.7379789
C          1.74650       -1.48995       -0.32206
C          0.35176       -1.21915        0.00208
C         -0.56907       -2.02068        0.63366
Cl        -0.23674       -3.59356        1.25583
C         -1.84757       -1.40516        0.77035
Cl        -3.17326       -2.15367        1.57106
C         -1.89557       -0.14795        0.22872
S         -0.36705        0.29067       -0.44541
C         -3.02311        0.77860        0.19606
S         -3.00103        2.25000        1.11543
C         -4.56185        2.69759        0.55816
H         -5.02594        3.62023        0.87583
C         -5.08040        1.76445       -0.28624
Cl        -6.63200        1.90091       -1.02812
C         -4.19621        0.66057       -0.50012
Cl        -4.56290       -0.65651       -1.54510
C          2.82898       -0.65084       -0.27703
C          3.11340        0.73507        0.17008
O          2.37912        1.55303        0.65755
N          4.51154        0.90078       -0.05621
C          5.25096        2.06708        0.27424
O          6.35024        2.04100        0.75442
O          4.55488        3.15104       -0.04400
C          5.16510        4.38901        0.32947
C          5.14069       -0.26762       -0.58710
O          6.29807       -0.37388       -0.88362
C          4.03480       -1.24276       -0.71698
C          3.90300       -2.53270       -1.11959
H          4.66075       -3.21528       -1.47898
S          2.26393       -3.03557       -0.95510
H          4.45669        5.15900        0.02881
H          6.11815        4.51438       -0.18885
H          5.33235        4.41985        1.40843
