42
COMP61_200000.log	Energy: -1723700.0748591
C          2.54468       -0.34198        0.42460
C          1.08859       -0.28347        0.31838
C          0.23816       -1.19674       -0.21854
Cl         0.85038       -2.63758       -0.97113
C         -1.15911       -0.81069       -0.18376
C         -2.30471       -1.49781       -0.62047
C         -2.27537       -2.87544       -1.23252
C         -3.51242       -0.82501       -0.45188
S         -5.06800       -1.48042       -0.93757
C         -5.88044       -0.06057       -0.37682
H         -6.95420        0.02846       -0.46543
C         -5.04132        0.85790        0.14566
Cl        -5.66502        2.35857        0.76728
C         -3.64144        0.46723        0.12711
C         -2.49883        1.14803        0.57413
C         -2.53377        2.51826        1.20243
C         -1.28861        0.47815        0.40014
S          0.25951        1.13622        0.88564
C          3.47012        0.51260       -0.09619
C          3.62305        1.67745       -0.96242
O          2.83228        2.40580       -1.52532
N          5.04162        1.83441       -1.03276
C          5.66682        2.89807       -1.78555
C          5.68918        0.86643       -0.29738
H          6.77098        0.84150       -0.25991
C          4.77236        0.05295        0.28723
C          4.61608       -1.13595        1.11714
O          5.40570       -1.85136        1.69783
N          3.20164       -1.32275        1.15409
C          2.59450       -2.33460        1.99202
H         -1.73967       -3.58303       -0.59591
H         -1.78135       -2.86852       -2.20845
H         -3.28549       -3.26684       -1.37610
H         -2.98502        3.25203        0.53009
H         -1.52842        2.87169        1.44436
H         -3.11453        2.51742        2.12903
H          4.86369        3.47066       -2.25295
H          6.32130        2.49550       -2.56482
H          6.24468        3.55775       -1.13076
H          3.35725       -2.66273        2.70007
H          2.26127       -3.19412        1.40422
H          1.74259       -1.91546        2.53358
