37
COMP27_430400.log	Energy: -1508932.3108282
C          3.05759       -0.17902       -0.18723
C          1.68131       -0.55117        0.14567
C          1.25223       -1.70057        0.77855
C          2.07922       -2.72554        1.31894
N          2.66131       -3.60134        1.80997
C         -0.17056       -1.77002        0.91495
O         -0.83662       -2.78498        1.50084
C         -0.81586       -0.67682        0.39135
S          0.33677        0.44391       -0.27126
C         -2.24723       -0.46406        0.40216
C         -2.89204        0.63774       -0.02906
C         -4.34226        0.76032       -0.07060
C         -5.26053       -0.20883       -0.39807
O         -5.00509       -1.48039       -0.76280
C         -6.61383        0.26398       -0.35926
C         -7.74811       -0.54654       -0.66439
N         -8.67779       -1.19294       -0.91184
C         -6.69279        1.58662       -0.01199
H         -7.59240        2.17663        0.09060
S         -5.14981        2.26893        0.26516
C          3.57099        1.14024        0.06711
N          2.89013        2.15258        0.59086
S          3.91981        3.41560        0.68153
N          5.26376        2.72537        0.06467
C          4.94103        1.47233       -0.23527
C          5.81643        0.49971       -0.80166
H          6.84811        0.75576       -1.01870
C          5.30180       -0.73118       -1.05138
O          5.98452       -1.77286       -1.59519
C          3.92373       -1.07756       -0.76237
O          3.51277       -2.30990       -1.09521
H         -0.21052       -3.45294        1.81451
H         -2.81300       -1.28461        0.84054
H         -2.31910        1.49328       -0.38638
H         -4.05437       -1.57289       -0.92410
H          6.90389       -1.52910       -1.75705
H          4.27589       -2.81950       -1.40758
