32
COMP57_110200.log	Energy: -2280104.5256599
C          1.58931        0.41216       -0.00137
C          0.20401       -0.00887       -0.00250
C         -0.25404       -1.30150       -0.00602
F          0.53878       -2.37241       -0.00963
C         -1.65997       -1.42710       -0.00590
F         -2.24697       -2.62438       -0.00944
C         -2.31990       -0.22837       -0.00205
S         -1.16452        1.07257        0.00165
C         -3.73725        0.07481       -0.00103
C         -4.71750       -0.84941        0.00301
C         -6.13627       -0.54921        0.00355
C         -6.79482        0.65080       -0.00473
F         -6.19818        1.84406       -0.01532
C         -8.21085        0.53360       -0.00139
F         -8.99752        1.60553       -0.00854
C         -8.64229       -0.75378        0.00933
H         -9.66218       -1.10796        0.01401
S         -7.30521       -1.84135        0.01593
C          2.15235        1.67043        0.00131
Cl         1.26433        3.15247        0.00384
N          3.50373        1.74991        0.00234
C          4.02166        0.55388        0.00056
S          2.88816       -0.75312       -0.00275
C          5.45336        0.30751        0.00114
S          6.59739        1.61352        0.00416
C          7.86307        0.44862        0.00331
H          8.90643        0.72681        0.00470
C          7.32622       -0.80453        0.00086
Cl         8.26237       -2.25695       -0.00038
N          5.96978       -0.89042       -0.00039
H         -3.99523        1.12910       -0.00364
H         -4.45833       -1.90360        0.00626
