56
COMP82_200003.log	Energy: -2104459.5754043
C          1.26040        0.50662       -0.38498
C          2.72448        0.57730       -0.51278
C          3.52945        1.55373       -1.03977
Cl         2.94948        3.01869       -1.76790
C          4.92017        1.26582       -0.98674
H          5.68200        1.94814       -1.34425
C          5.17941        0.05147       -0.41414
S          3.70788       -0.74027        0.05180
C          6.46956       -0.58021       -0.17841
S          7.82108       -0.26011       -1.22454
C          8.85106       -1.29580       -0.31289
H          9.88759       -1.43610       -0.58329
C          8.17318       -1.86262        0.72259
Cl         8.89320       -2.96792        1.84974
C          6.81139       -1.46003        0.81259
H          6.13586       -1.79324        1.59121
C          0.58222       -0.67427       -0.70762
C         -0.79277       -0.77672       -0.55953
C         -1.52302        0.31310       -0.08003
C         -2.95709        0.56603        0.08671
C         -3.06609        2.01180        0.50637
O         -4.05438        2.62142        0.82886
N         -1.74582        2.51624        0.57154
C         -1.36148        3.80567        0.96772
O         -0.21709        4.10956        1.20937
O         -2.39420        4.63474        1.02396
C         -2.07461        5.96058        1.45057
C         -0.82793        1.50424        0.20428
C          0.54551        1.61763        0.07811
C         -4.04828       -0.24827       -0.01654
C         -3.93238       -1.75329        0.04800
O         -2.94299       -2.41460        0.23976
N         -5.24608       -2.26599       -0.03970
C         -5.62235       -3.61468        0.02056
O         -6.76847       -3.97773        0.14690
O         -4.57987       -4.42564       -0.09631
C         -4.89022       -5.81725       -0.00537
C         -6.16973       -1.19870       -0.15991
C         -7.54211       -1.27960       -0.33783
C         -8.24235       -0.08872       -0.51692
H         -9.31871       -0.12913       -0.65375
C         -7.58501        1.13776       -0.53229
C         -6.20976        1.20584       -0.34503
C         -5.48215        0.03065       -0.13548
H          1.13567       -1.52432       -1.09432
H         -1.28840       -1.70232       -0.80530
H         -3.02810        6.48538        1.47981
H         -1.39258        6.43580        0.74191
H         -1.61288        5.94359        2.44006
H          1.04882        2.53392        0.34632
H         -3.93293       -6.32683       -0.10218
H         -5.56900       -6.11237       -0.80861
H         -5.35192       -6.04309        0.95828
H         -8.04515       -2.23508       -0.33453
H         -8.14549        2.05424       -0.68519
H         -5.71110        2.16215       -0.34413
