46
COMP77_340000.log	Energy: -1835067.0268686
C          1.53433        1.04525        0.55224
C          0.25296        0.36505        0.46698
C         -0.14386       -0.86072        0.97181
O          0.62188       -1.77579        1.55634
C         -1.55713       -1.07342        0.86508
C         -2.15682       -2.28138        1.32205
N         -2.66623       -3.25862        1.68446
C         -2.23643       -0.01788        0.28331
S         -1.12985        1.23355       -0.15243
C         -3.63845        0.18351       -0.03019
C         -4.63167       -0.69351        0.21726
C         -6.03366       -0.48086       -0.08594
C         -6.70667        0.60221       -0.63276
C         -6.13454        1.83543       -1.04674
N         -5.74813        2.86936       -1.40930
C         -8.12004        0.38585       -0.76091
O         -8.98988        1.28506       -1.26158
C         -8.49938       -0.84656       -0.31382
H         -9.49858       -1.25541       -0.29986
S         -7.15257       -1.74637        0.26166
C          2.84702        0.64107        0.34569
C          3.31140       -0.68741       -0.08234
O          2.56644       -1.67017       -0.16211
C          4.73767       -0.79591       -0.41807
C          5.32744       -1.94334       -0.89354
C          4.71607       -3.27504       -1.19666
S          7.01872       -1.67799       -1.12831
C          6.95670       -0.03734       -0.58233
C          8.18801        0.81082       -0.52661
C          5.67089        0.28707       -0.23848
C          5.24572        1.60189        0.26833
O          6.00966        2.53518        0.45797
C          3.78589        1.72218        0.50855
C          3.19709        2.90152        0.84168
H          3.69509        3.84807        1.00100
S          1.49882        2.73937        0.97304
H          1.46076       -1.82500        1.03471
H         -3.86686        1.13628       -0.49974
H         -4.40390       -1.64781        0.68220
H         -8.52091        2.09112       -1.51907
H          3.90973       -3.16923       -1.92749
H          4.27035       -3.70294       -0.29447
H          5.45981       -3.97356       -1.58892
H          9.04961        0.29616       -0.95948
H          8.41849        1.07479        0.50992
H          8.02510        1.75023       -1.06077
