32
COMP64_200002.log	Energy: -1672269.8240870
C          0.92208        0.75641        0.13822
C         -0.43639        0.26289        0.13748
C         -0.88705       -0.93965        0.62876
Cl         0.05045       -2.09052        1.49389
C         -2.27822       -1.11839        0.40698
S         -3.42267       -2.36452        0.76876
C         -4.69126       -1.43725        0.03168
H         -5.69913       -1.82640       -0.00453
C         -4.25985       -0.24346       -0.45879
Cl        -5.26779        0.91620       -1.25098
C         -2.86493       -0.05260       -0.24419
S         -1.73129        1.19881       -0.58955
C          2.09840        0.10330       -0.10117
C          2.61468       -1.15227       -0.64082
O          2.11689       -2.21069       -0.95355
N          4.01219       -0.86294       -0.72519
O          4.91256       -1.71699       -1.28837
C          5.25120       -2.76566       -0.37484
C          4.32937        0.42577       -0.37538
H          5.34720        0.77811       -0.46701
C          3.18526        1.04039        0.02575
C          2.64857        2.33445        0.41238
O          3.14036        3.39486        0.72028
N          1.23011        2.10071        0.34584
O          0.38046        2.90132        1.06981
C          0.09239        4.10599        0.35568
H          5.97559       -3.37876       -0.91203
H          4.36519       -3.35658       -0.12974
H          5.70396       -2.35299        0.53341
H         -0.60645        4.64468        0.99678
H         -0.37710        3.88636       -0.60920
H          1.00505        4.68870        0.21504
