30
COMP52_130000.log	Energy: -1645991.2353175
C          1.48416       -0.15527        0.01489
C          0.09548        0.25776        0.03423
C         -0.43008        1.48925        0.30587
F          0.30915        2.55477        0.59428
C         -1.84969        1.56004        0.27240
C         -2.56007        2.75991        0.56812
N         -3.12294        3.74463        0.80647
C         -2.41749        0.33751       -0.03550
S         -1.19346       -0.85628       -0.29842
C         -3.82631        0.00928       -0.18254
S         -4.94538        1.14369       -0.85409
C         -6.26450        0.05167       -0.71119
H         -7.26413        0.32925       -1.01107
C         -5.85609       -1.12807       -0.17877
F         -6.65241       -2.16161        0.05591
C         -4.46445       -1.17862        0.13062
C         -3.85566       -2.32276        0.72311
N         -3.37426       -3.26369        1.19916
C          1.97918       -1.43602        0.00989
H          1.37296       -2.33461        0.04723
N          3.33433       -1.55607       -0.03138
C          3.89606       -0.37941       -0.05452
S          2.80617        0.97224       -0.02740
C          5.33379       -0.16610       -0.09188
S          6.45035       -1.49782       -0.10538
C          7.73809       -0.35667       -0.14962
H          8.77162       -0.67159       -0.17269
C          7.24265        0.91369       -0.15033
H          7.84077        1.81600       -0.17425
N          5.87927        1.01746       -0.11784
