36
COMP62_140000.log	Energy: -1268638.4445355
C          1.93266        0.64301       -0.26097
C          0.57896        0.14965       -0.36342
C          0.21241       -1.09885       -0.78337
F          1.03560       -2.01672       -1.28540
C         -1.17227       -1.37643       -0.69588
O         -1.73147       -2.54719       -1.07935
C         -1.89134       -0.31737       -0.19927
S         -0.83538        1.02737        0.15443
C         -3.31900       -0.25258        0.01967
S         -4.38661       -1.59851       -0.31750
C         -5.77627       -0.71626        0.19386
H         -6.76269       -1.15485        0.17314
C         -5.42837        0.52887        0.59605
F         -6.26500        1.47309        1.05433
C         -4.03795        0.81090        0.50485
O         -3.48383        1.99476        0.85611
C          3.05569       -0.06705        0.07113
C          3.50096       -1.36553        0.55546
O          2.93302       -2.41988        0.76671
N          4.89735       -1.15836        0.78049
C          5.76790       -2.20574        1.26231
C          5.26382        0.13790        0.49633
H          6.28429        0.46515        0.64896
C          4.17615        0.82416        0.05831
C          3.70715        2.14952       -0.32047
O          4.27156        3.20989       -0.49452
N          2.30066        1.96498       -0.48849
C          1.47068        3.03369       -1.00207
H         -1.02605       -3.17230       -1.29502
H         -4.18195        2.57921        1.18073
H          5.14168       -3.08093        1.44430
H          6.25514       -1.91139        2.19696
H          6.53051       -2.45895        0.51896
H          2.14911        3.82592       -1.32368
H          0.80309        3.43601       -0.23402
H          0.87603        2.68869       -1.85225
