50
COMP82_020000.log	Energy: -1867888.8098142
C         -0.68032        0.40850       -0.13498
C         -2.14551        0.50293       -0.18219
C         -2.90140        1.44116       -0.83118
H         -2.49056        2.23954       -1.43655
C         -4.29451        1.21956       -0.67076
Cl        -5.47838        2.24562       -1.41312
C         -4.60967        0.12474        0.08939
S         -3.15297       -0.64418        0.63941
C         -5.92498       -0.38680        0.46308
S         -6.94553        0.46454        1.58313
C         -8.17478       -0.73239        1.47171
H         -9.09386       -0.62262        2.03067
C         -7.83345       -1.74427        0.62740
H         -8.45796       -2.59928        0.40265
C         -6.54538       -1.53882        0.05697
Cl        -5.85059       -2.65449       -1.07308
C         -0.03340       -0.82819       -0.06436
C          1.35561       -0.92532       -0.03679
C          2.13511        0.22942       -0.08979
C          3.57926        0.52436       -0.01921
C          3.66217        2.04251       -0.01801
O          4.63666        2.77046        0.00820
N          2.37243        2.51362       -0.11247
C          2.03823        3.91498       -0.16378
C          1.46004        1.46807       -0.13524
C          0.08452        1.58409       -0.16065
C          4.67868       -0.28153       -0.00096
C          4.61493       -1.77330       -0.29769
O          3.65766       -2.46900       -0.58311
N          5.90339       -2.24596       -0.24591
C          6.25847       -3.61955       -0.50059
C          6.79493       -1.23229        0.08564
C          8.15891       -1.36588        0.27392
C          8.87533       -0.22695        0.64214
H          9.94783       -0.29969        0.79600
C          8.22712        0.99050        0.81955
C          6.85135        1.10981        0.62084
C          6.10998       -0.00768        0.23437
H         -0.61994       -1.74201       -0.06064
H          1.82682       -1.89474       -0.00014
H          2.97300        4.47558       -0.13685
H          1.41852        4.19753        0.69423
H          1.49982        4.14805       -1.08852
H         -0.39634        2.55656       -0.16524
H          5.34244       -4.15359       -0.75451
H          6.71132       -4.07340        0.38759
H          6.96361       -3.68536       -1.33588
H          8.65224       -2.32365        0.14547
H          8.79505        1.86741        1.11317
H          6.36375        2.06333        0.74854
