36
COMP57_400300.log	Energy: -1664411.8884431
C          1.35890       -0.08876       -0.15569
C          0.02922        0.47944       -0.14174
C         -0.28047        1.82007       -0.19388
H          0.46398        2.60523       -0.28313
C         -1.67215        2.06322       -0.13856
O         -2.26647        3.28138       -0.18318
C         -2.42937        0.91338       -0.03657
S         -1.40931       -0.48779       -0.02806
C         -3.87278        0.86366        0.04496
C         -4.61529       -0.24585        0.24557
C         -6.06515       -0.27402        0.24579
C         -6.93588        0.50319       -0.48944
O         -6.59511        1.45523       -1.38949
C         -8.30865        0.19685       -0.26051
H         -9.11974        0.71318       -0.75813
C         -8.46404       -0.81443        0.63649
H         -9.39053       -1.24104        0.99498
S         -6.95898       -1.41892        1.21212
C          1.79041       -1.38741       -0.37190
C          0.93594       -2.50170       -0.64209
N          0.23832       -3.40222       -0.85696
N          3.14343       -1.59569       -0.32970
C          3.76598       -0.48401       -0.08558
S          2.74983        0.91038        0.12872
C          5.21291       -0.37987        0.01202
S          6.23126       -1.77689       -0.19281
C          7.59222       -0.77052        0.07104
H          8.60282       -1.15326        0.05539
C          7.18798        0.51945        0.28950
C          8.08662        1.60723        0.54123
N          8.83369        2.46920        0.74149
N          5.83384        0.73674        0.25501
H         -1.59481        3.96947       -0.24732
H         -4.35374        1.83776       -0.01752
H         -4.11299       -1.19968        0.41003
H         -5.65051        1.37128       -1.58520
