33
COMP27_120400.log	Energy: -2000118.8398095
C          3.15731        0.52222       -0.15233
C          1.76414        0.09210       -0.32124
C          1.30725       -1.07483       -0.86873
Cl         2.30031       -2.29173       -1.57918
C         -0.10692       -1.18812       -0.82434
F         -0.73498       -2.25465       -1.32125
C         -0.74855       -0.12432       -0.24980
S          0.43572        1.04609        0.24919
C         -2.16127        0.12543       -0.03165
C         -3.15187       -0.72930       -0.34977
C         -4.56532       -0.47820       -0.13293
C         -5.21434        0.61239        0.38185
F         -4.59648        1.71530        0.80564
C         -6.63016        0.48653        0.43431
Cl        -7.65145        1.73769        1.04490
C         -7.06340       -0.71136       -0.04544
H         -8.08255       -1.06146       -0.11929
S         -5.74348       -1.68631       -0.56064
C          4.04974       -0.21014        0.70130
N          3.73119       -1.27984        1.42078
S          5.08650       -1.73056        2.20853
N          6.12200       -0.58655        1.67321
C          5.42563        0.19097        0.85090
C          5.92249        1.33590        0.16055
H          6.95893        1.63494        0.27887
C          5.05212        2.01831       -0.62716
O          5.35544        3.12968       -1.35211
C          3.66742        1.62072       -0.79162
O          2.89572        2.36180       -1.60574
H         -2.40567        1.07879        0.42594
H         -2.90727       -1.68420       -0.80375
H          6.28632        3.35877       -1.24415
H          3.43571        3.08127       -1.96620
