43
COMP56_000120.log	Energy: -1295310.2942484
C          1.17215        0.00938       -0.27295
C         -0.23808       -0.38777       -0.31782
C         -1.24044        0.54393        0.00663
C         -2.56455        0.16141       -0.06454
C         -3.82399        0.99635        0.21339
O         -3.79258        1.66222        1.45219
C         -3.59470        0.84362        2.58473
O         -4.08892        1.95877       -0.75741
C         -3.12686        2.98633       -0.90882
C         -4.92026       -0.05619        0.08828
C         -6.27849        0.11173        0.28055
C         -7.11521       -0.99004        0.09078
H         -8.18590       -0.88583        0.23794
C         -6.58741       -2.22418       -0.28910
C         -5.21566       -2.38679       -0.48340
C         -4.38533       -1.29018       -0.28884
C         -2.92084       -1.15364       -0.39036
C         -1.94035       -2.08525       -0.70028
C         -0.60515       -1.69122       -0.67673
C          1.73420        1.24423       -0.47300
F          1.03094        2.33589       -0.75502
N          3.07365        1.36473       -0.39135
C          3.59868        0.19962       -0.11908
S          2.46738       -1.09952        0.05885
C          5.02559       -0.01976        0.03264
S          6.16343        1.28003       -0.13356
C          7.43219        0.15879        0.18099
H          8.47327        0.44176        0.20468
C          6.88939       -1.07383        0.38046
F          7.59520       -2.16179        0.64570
N          5.54488       -1.18841        0.30012
H         -0.97096        1.54302        0.32870
H         -3.62786        1.50786        3.45011
H         -2.62176        0.33616        2.55766
H         -4.38572        0.08826        2.67915
H         -3.59093        3.73691       -1.55096
H         -2.21690        2.61593       -1.39742
H         -2.87090        3.44079        0.05347
H         -6.67649        1.07900        0.57091
H         -7.25336       -3.06967       -0.43414
H         -4.81183       -3.35134       -0.77796
H         -2.19876       -3.10802       -0.95822
H          0.16302       -2.41125       -0.94538
