44
COMP71_400012.log	Energy: -1812954.8235891
C          0.23183       -1.56130       -0.14816
C         -1.10027       -1.00465        0.00609
C         -1.67633        0.08437       -0.60080
O         -1.08563        0.97986       -1.39269
C         -3.09814        0.18631       -0.35977
C         -3.95318        1.17679       -0.83821
H         -3.56359        1.97607       -1.45964
C         -5.29177        1.08922       -0.48690
S         -6.57645        2.18820       -0.94664
C         -7.74405        1.24263       -0.04875
H         -8.78110        1.55115       -0.02893
C         -7.19599        0.16485        0.55955
O         -7.81264       -0.76828        1.32739
C         -5.77524        0.04087        0.33182
C         -4.91717       -0.94675        0.81442
H         -5.29689       -1.74455        1.44388
C         -3.58143       -0.86171        0.45258
S         -2.29344       -1.94230        0.92900
C          1.50728       -1.00849       -0.18975
C          1.86383        0.40670       -0.00758
O          1.03099        1.31639        0.05275
C          3.29860        0.68869        0.10366
C          3.82035        1.93580        0.32944
O          3.12850        3.05196        0.51722
C          3.82951        4.26516        0.73288
S          5.58081        1.91708        0.35555
C          5.58897        0.18301        0.03930
O          6.71598       -0.51017       -0.07169
C          7.95251        0.17141        0.04666
C          4.32417       -0.32066       -0.06590
C          3.99464       -1.72853       -0.32567
O          4.82270       -2.60776       -0.49444
C          2.53594       -2.00926       -0.33398
C          2.04741       -3.27535       -0.40923
H          2.62805       -4.18267       -0.50306
S          0.33936       -3.29815       -0.31044
H         -0.20483        1.18345       -0.98733
H         -8.75231       -0.56037        1.38841
H          3.06360        5.03069        0.84937
H          4.46480        4.50998       -0.12679
H          4.43551        4.21122        1.64533
H          8.72184       -0.58955       -0.07746
H          8.05341        0.63552        1.03535
H          8.05916        0.93115       -0.73711
