38
COMP77_320001.log	Energy: -2268131.4163269
C         -2.35354       -1.16965       -0.85982
C         -0.99092       -1.23592       -0.33018
C         -0.52059       -2.03344        0.67247
Cl        -1.49572       -3.15797        1.53849
C          0.86520       -1.82906        0.95694
C          1.58431       -2.52191        1.97439
N          2.18569       -3.07005        2.79996
C          1.43515       -0.86053        0.15317
S          0.27246       -0.22607       -0.95381
C          2.81745       -0.42360        0.20121
C          3.28107        0.69049       -0.39234
C          4.66494        1.13409       -0.39052
C          5.83859        0.43301       -0.17886
C          5.90641       -0.97020        0.05936
N          5.95488       -2.11313        0.24885
C          6.99871        1.26941       -0.27283
Cl         8.60199        0.66897       -0.05931
C          6.70685        2.56606       -0.55701
H          7.40123        3.38449       -0.68003
S          5.01079        2.79932       -0.71344
C         -3.35813       -0.29567       -0.52499
C         -3.24329        0.79631        0.48060
O         -2.21463        1.04560        1.08159
C         -4.49604        1.56055        0.68398
C         -4.63065        2.59251        1.56838
H         -3.87078        2.98323        2.23124
S         -6.21784        3.24740        1.52981
C         -6.72242        2.13821        0.31883
H         -7.72879        2.14698       -0.07698
C         -5.70821        1.29733       -0.03907
C         -5.82101        0.22570       -1.05436
O         -6.84129       -0.00204       -1.67711
C         -4.57290       -0.55690       -1.24219
C         -4.46075       -1.61151       -2.10218
H         -5.23589       -2.00097       -2.74840
S         -2.89626       -2.30347       -2.05445
H          3.47847       -1.06262        0.78075
H          2.58465        1.34876       -0.90983
