52
COMP73_000033.log	Energy: -1551365.9872213
C         -1.18060       -1.52291       -0.63034
C         -2.44585       -0.81451       -0.33450
C         -2.59020        0.48272       -0.82766
C         -3.75353        1.21032       -0.60476
C         -3.80044        2.61585       -1.10413
O         -2.86136        3.19333       -1.60574
O         -5.00229        3.17914       -0.92662
C         -5.11409        4.53580       -1.35625
C         -4.81618        0.62940        0.08829
H         -5.72952        1.18919        0.25191
C         -4.68491       -0.65842        0.58243
C         -3.50304       -1.38170        0.39722
C         -3.34797       -2.70839        1.07461
O         -2.29233       -3.21861        1.36630
O         -4.53658       -3.26448        1.35497
C         -4.47522       -4.50491        2.05969
C          0.09368       -1.13431       -0.30579
C          0.45574        0.03751        0.51990
O         -0.32717        0.63845        1.23030
C          1.89401        0.41474        0.42064
C          2.40208        1.62043        0.82974
C          1.64915        2.83108        1.27474
O          1.92471        3.47892        2.25490
O          0.68165        3.10954        0.40548
C         -0.24160        4.12733        0.79648
S          4.11235        1.65964        0.70438
C          4.15960        0.07722        0.01456
C          5.45856       -0.44106       -0.50127
O          5.60476       -1.03906       -1.53437
O          6.45780       -0.08129        0.31939
C          7.76629       -0.44943       -0.12241
C          2.90355       -0.47516       -0.06865
C          2.55124       -1.83357       -0.58356
O          3.36613       -2.70812       -0.79099
C          1.09803       -2.02042       -0.82020
C          0.56741       -3.05592       -1.53092
H          1.10959       -3.85817       -2.01240
S         -1.14202       -2.94957       -1.61125
H         -1.77839        0.94685       -1.37714
H         -6.14944        4.81674       -1.16733
H         -4.87937        4.62264       -2.41947
H         -4.43406        5.17372       -0.78638
H         -5.49531       -1.11152        1.14064
H         -5.51104       -4.80991        2.20350
H         -3.97520       -4.37391        3.02224
H         -3.93176       -5.24983        1.47396
H         -0.99192        4.15024        0.00734
H          0.26620        5.09067        0.88615
H         -0.69773        3.86408        1.75365
H          8.44730       -0.08332        0.64453
H          7.98632        0.01362       -1.08732
H          7.84234       -1.53459       -0.22012
