48
COMP92_410000.log	Energy: -1555073.1279171
C         -0.58456        0.26171        0.28030
C          0.85451        0.54631        0.39445
C          1.54732        1.36240        1.26065
O          1.04863        2.25243        2.12838
C          2.95113        1.13472        1.18837
F          3.79986        1.83299        1.94417
C          3.35087        0.18178        0.29789
S          1.95424       -0.48286       -0.49928
C          4.70239       -0.21656       -0.03249
S          6.10918        0.50304        0.70253
C          7.17771       -0.50077       -0.21611
H          8.24743       -0.41028       -0.08738
C          6.50365       -1.34549       -1.04605
O          6.98901       -2.26742       -1.90886
C          5.09438       -1.17125       -0.92733
F          4.24077       -1.89790       -1.65211
C         -0.92791       -1.11765        0.41916
C         -2.21307       -1.57099        0.32322
C         -2.49050       -3.02139        0.52575
O         -1.60800       -3.81330        0.78646
N         -3.82290       -3.42163        0.39821
C         -4.15073       -4.83338        0.58919
C         -4.89085       -2.57814        0.08992
O         -6.01744       -3.02195       -0.01000
C         -4.58467       -1.13525       -0.10549
C         -5.59954       -0.26247       -0.43072
H         -6.60962       -0.64245       -0.53679
C         -5.30578        1.09275       -0.63917
C         -4.01634        1.56461       -0.49586
C         -3.75675        2.99396       -0.77553
O         -4.62936        3.76632       -1.11783
N         -2.43134        3.41173       -0.62320
C         -2.12374        4.82508       -0.84589
C         -1.39267        2.62494       -0.14530
O         -0.32564        3.17704        0.10282
C         -1.62122        1.17041        0.02492
C         -2.95861        0.69698       -0.13397
C         -3.26090       -0.67084        0.03342
H          0.40142        2.77831        1.61452
H          7.95254       -2.26041       -1.86973
H         -0.14903       -1.83719        0.64591
H         -3.23332       -5.35682        0.84727
H         -4.57611       -5.24137       -0.32995
H         -4.88781       -4.93336        1.38797
H         -6.08164        1.79410       -0.92594
H         -2.99338        5.28279       -1.31044
H         -1.25035        4.90738       -1.49337
H         -1.90340        5.31608        0.10468
