42
COMP67_300002.log	Energy: -1308334.2918317
C          2.53794       -0.78422       -0.03899
C          1.10483       -0.93544       -0.10595
C          0.37539       -2.07285       -0.36319
H          0.82189       -3.03519       -0.56862
C         -1.02188       -1.84242       -0.35557
C         -1.95605       -2.89287       -0.60039
N         -2.70970       -3.75319       -0.79521
C         -1.36235       -0.51870       -0.09138
S          0.05815        0.43368        0.13437
C         -2.64625        0.15124        0.01431
C         -3.84905       -0.44834       -0.08930
C         -5.14071        0.20712        0.01412
C         -5.50479        1.53099        0.21378
C         -4.58296        2.60796        0.37084
N         -3.84063        3.49027        0.50032
C         -6.91814        1.73246        0.24871
H         -7.37589        2.70260        0.39487
C         -7.61025        0.57351        0.07737
H         -8.68263        0.43851        0.05984
S         -6.56238       -0.77232       -0.12801
C          3.31138        0.34656        0.04448
C          3.21454        1.79657        0.06072
O          2.28852        2.58207        0.08627
N          4.59165        2.17447        0.02354
O          5.01175        3.45200        0.25601
C          4.84880        4.25581       -0.91713
C          5.45022        1.10376        0.06841
H          6.51844        1.26626        0.09259
C          4.69942       -0.02977        0.06779
C          4.79996       -1.48056        0.01150
O          5.71445       -2.27061        0.04684
N          3.42259       -1.85695       -0.07171
O          3.05196       -3.16670       -0.10191
C          3.06094       -3.72833        1.21726
H         -2.59025        1.22068        0.19414
H         -3.89882       -1.51878       -0.26421
H          5.25429        5.23067       -0.64402
H          3.79009        4.34493       -1.17178
H          5.41366        3.83274       -1.75482
H          2.76682       -4.76929        1.07931
H          2.33752       -3.21161        1.85754
H          4.06567       -3.67449        1.64282
