46
COMP77_130002.log	Energy: -1959528.3236301
C         -1.15898       -1.65792        0.41023
C          0.14307       -1.01951        0.57118
C          0.49430       -0.02624        1.45841
C         -0.39616        0.56347        2.40174
N         -1.11139        1.02719        3.18628
C          1.86553        0.32542        1.34318
F          2.40166        1.26710        2.11808
C          2.57248       -0.37746        0.40394
S          1.50079       -1.50278       -0.37576
C          3.96761       -0.30581        0.01252
C          4.86763        0.55324        0.52731
C          6.26370        0.62197        0.13312
C          6.97483       -0.10152       -0.78648
F          6.45202       -1.07370       -1.53230
C          8.34964        0.25766       -0.90252
C          9.26317       -0.36937       -1.80122
N         10.00593       -0.87771       -2.53087
C          8.67515        1.27772       -0.04619
H          9.64231        1.74417        0.07426
S          7.32784        1.78198        0.87758
C         -2.38724       -1.09477        0.14841
C         -2.64300        0.34616       -0.15271
O         -1.74563        1.16751       -0.22410
C         -4.06142        0.66919       -0.37265
C         -4.52951        1.93638       -0.58959
O         -3.79558        3.03962       -0.65318
C         -4.45120        4.28983       -0.77919
S         -6.27919        1.96671       -0.79592
C         -6.35622        0.22069       -0.58166
O         -7.50315       -0.44687       -0.62531
C         -8.70325        0.27180       -0.85344
C         -5.12029       -0.32307       -0.36769
C         -4.86334       -1.75270       -0.14896
O         -5.71821       -2.62159       -0.16755
C         -3.43294       -2.07303        0.10936
C         -2.98550       -3.34332        0.32867
H         -3.58561       -4.24299        0.34220
S         -1.29770       -3.37964        0.60144
H          4.27849       -1.00893       -0.75333
H          4.55737        1.25833        1.29140
H         -3.66158        5.03968       -0.77067
H         -5.13168        4.46314        0.06286
H         -5.00210        4.34944       -1.72593
H         -9.49833       -0.47233       -0.84533
H         -8.68025        0.77393       -1.82821
H         -8.87903        1.00600       -0.05789
