27
COMP42_200001.log	Energy: -1792368.7638439
C          2.26773        0.50673        0.03444
C          0.85408        0.84457       -0.03831
C          0.23505        2.05863       -0.25872
Cl         1.04582        3.55954       -0.56649
C         -1.17884        2.01359       -0.24523
H         -1.80200        2.87836       -0.43770
C         -1.65191        0.75283       -0.00268
S         -0.36361       -0.38016        0.20549
C         -3.03670        0.31191        0.07301
S         -4.28997        1.39951        0.59067
C         -5.50050        0.19282        0.39681
H         -6.53980        0.40247        0.60466
C         -4.95406       -0.98020       -0.02757
Cl        -5.88048       -2.41444       -0.32851
C         -3.54551       -0.92529       -0.21828
H         -2.95341       -1.75935       -0.57582
C          2.88285       -0.72375        0.01473
C          2.50230       -2.15637       -0.12973
O          1.41972       -2.68163       -0.24534
N          3.72040       -2.84599       -0.09824
H          3.76760       -3.85283       -0.16248
C          4.85361       -2.04107        0.07145
O          5.99349       -2.42870        0.13685
C          4.29581       -0.66581        0.14263
C          4.79059        0.58777        0.27297
H          5.81848        0.90729        0.37615
S          3.50750        1.73714        0.23212
