36
COMP57_440200.log	Energy: -2219843.4605674
C          1.58280        0.43867        0.27779
C          0.18640        0.05658        0.39079
C         -0.32365       -0.97596        1.13389
O          0.32594       -1.83127        1.96448
C         -1.73039       -1.14542        0.99823
O         -2.40828       -2.10282        1.67236
C         -2.30280       -0.23932        0.14117
S         -1.08954        0.83286       -0.50668
C         -3.69194       -0.05996       -0.23386
C         -4.70934       -0.86777        0.13608
C         -6.09923       -0.61815       -0.20234
C         -6.73009        0.58485       -0.38405
O         -6.20367        1.83773       -0.27864
C         -8.12374        0.47290       -0.68160
O         -8.90850        1.55613       -0.88518
C         -8.54303       -0.82090       -0.72107
H         -9.54039       -1.18053       -0.92578
S         -7.24899       -1.91749       -0.38204
C          2.19106        1.66268        0.42165
Cl         1.35560        3.11846        0.82215
N          3.53685        1.71440        0.25568
C          4.00318        0.52784       -0.01483
S          2.81711       -0.73142       -0.11696
C          5.41566        0.25149       -0.21780
S          6.60605        1.51205       -0.14777
C          7.81359        0.33170       -0.47201
H          8.86122        0.58123       -0.55117
C          7.22825       -0.89282       -0.60406
Cl         8.09630       -2.34896       -0.93580
N          5.87748       -0.94390       -0.46190
H          1.22242       -1.51660        2.14113
H         -1.77666       -2.57130        2.23729
H         -3.89587        0.77668       -0.90058
H         -4.49515       -1.75296        0.72830
H         -5.39818        1.79554        0.25666
H         -8.35839        2.34040       -0.74722
