33
COMP47_240001.log	Energy: -1935298.8284712
C         -3.07325       -0.60785       -0.16128
C         -1.79348        0.05536       -0.10691
C         -1.48780        1.39376       -0.29526
O         -2.31124        2.41133       -0.51241
C         -0.07277        1.61258       -0.31773
Cl         0.57600        3.19513       -0.54640
C          0.68927        0.48704       -0.14230
S         -0.33590       -0.89689        0.08027
C          2.13490        0.41422       -0.09549
C          2.83533       -0.72764        0.03450
C          4.27711       -0.87684        0.09664
C          5.31826        0.02000        0.14073
Cl         5.18098        1.75168        0.14385
C          6.61589       -0.58039        0.20157
O          7.77778        0.10087        0.25467
C          6.54784       -1.94263        0.20329
H          7.37599       -2.63431        0.24183
S          4.92016       -2.49161        0.13315
C         -4.35481       -0.18202        0.10024
C         -5.02283        1.03168        0.59515
O         -4.56612        2.13310        0.86244
N         -6.36257        0.69298        0.71533
H         -7.06380        1.35071        1.02596
C         -6.66724       -0.62762        0.33082
O         -7.76377       -1.12462        0.34852
C         -5.34935       -1.18778       -0.06199
C         -4.86760       -2.39052       -0.45154
H         -5.39651       -3.31752       -0.62384
S         -3.15206       -2.29507       -0.65170
H         -3.15042        2.32794        0.00350
H          2.63829        1.36977       -0.18152
H          2.29045       -1.66915        0.09786
H          7.58995        1.04975        0.23636
