50
COMP71_100022.log	Energy: -1986759.5905485
C         -0.72462        1.87611        0.34448
C          0.62239        1.33935        0.23698
C          1.10023        0.22018        0.83093
F          0.37803       -0.52718        1.65759
C          2.46498       -0.10166        0.52168
C          3.24491       -1.19482        0.91681
O          2.77694       -2.20310        1.70122
C          1.89853       -3.10959        1.03248
C          4.56559       -1.22227        0.48647
S          5.70841       -2.49399        0.85419
C          6.93945       -1.68846       -0.08112
H          7.92839       -2.11206       -0.18120
C          6.50127       -0.53511       -0.62414
F          7.26636        0.26159       -1.37656
C          5.12961       -0.20910       -0.32493
C          4.34211        0.87367       -0.73490
O          4.79783        1.86102       -1.55716
C          5.58970        2.84942       -0.90605
C          3.02219        0.90127       -0.30515
S          1.86183        2.13685       -0.72700
C         -1.93895        1.24150        0.19280
C         -2.14526       -0.17462       -0.22694
O         -1.22795       -0.93139       -0.49610
C         -3.56267       -0.58000       -0.30764
C         -3.97711       -1.84338       -0.62760
O         -3.19274       -2.87527       -0.92373
C         -3.79134       -4.13286       -1.18026
S         -5.73349       -1.98643       -0.61242
C         -5.88844       -0.29054       -0.16579
O         -7.07117        0.28882        0.01016
C         -8.24087       -0.50299       -0.09647
C         -4.67072        0.31718       -0.04104
C         -4.47262        1.72883        0.31840
O         -5.37671        2.52066        0.52529
C         -3.04466        2.13020        0.41294
C         -2.65869        3.40419        0.70748
H         -3.31170        4.24416        0.90075
S         -0.95425        3.55380        0.74372
H          1.62404       -3.86006        1.77447
H          2.41367       -3.59115        0.19296
H          0.99844       -2.60253        0.67358
H          5.83574        3.59022       -1.66759
H          6.51239        2.41473       -0.50943
H          5.02653        3.32711       -0.09535
H         -2.96965       -4.81376       -1.39889
H         -4.46183       -4.08100       -2.04704
H         -4.34252       -4.49282       -0.30298
H         -9.07325        0.17452        0.08928
H         -8.24321       -1.30284        0.65378
H         -8.33598       -0.93283       -1.10134
