38
COMP57_330300.log	Energy: -1801476.5005465
C         -1.95286       -0.20035        0.33081
C         -0.60476        0.34130        0.40507
C         -0.20904        1.60829        0.78399
C         -1.10248        2.62953        1.22667
N         -1.82977        3.45796        1.58402
C          1.20896        1.78748        0.71902
C          1.87478        2.99519        1.08380
N          2.43492        3.96532        1.38012
C          1.87827        0.65560        0.29878
S          0.76371       -0.61630       -0.04900
C          3.31431        0.51009        0.15734
C          3.94119       -0.67471        0.04370
C          5.37130       -0.86457       -0.13127
C          6.35642        0.00802       -0.55358
C          6.11979        1.35669       -0.94996
N          5.91663        2.45163       -1.27231
C          7.65740       -0.60000       -0.59041
C          8.84798        0.07980       -0.99295
N          9.81814        0.62279       -1.31794
C          7.63218       -1.91255       -0.20646
H          8.47153       -2.59128       -0.14943
S          6.05287       -2.42313        0.20303
C         -2.37833       -1.48872        0.60206
C         -1.52987       -2.54757        1.06217
N         -0.82714       -3.39344        1.42682
N         -3.70905       -1.73556        0.42674
C         -4.31460       -0.65673        0.02284
S         -3.31291        0.74387       -0.17458
C         -5.74324       -0.59843       -0.24874
S         -6.76442       -1.98753       -0.02065
C         -8.09243       -1.04175       -0.54143
H         -9.09396       -1.44295       -0.60596
C         -7.67769        0.22868       -0.84491
C         -8.55096        1.26291       -1.31567
N         -9.28032        2.07733       -1.69710
N         -6.33978        0.47468       -0.67627
H          3.87182        1.44278        0.16686
H          3.35934       -1.59347        0.10420
