49
COMP69_000032.log	Energy: -1453855.7467585
C         -2.24666       -0.71241        0.01794
C         -0.89895       -0.21422        0.00493
C          0.28043       -0.91380        0.20181
C          1.39654       -0.07504        0.10149
C          1.07636        1.24049       -0.16034
S         -0.60590        1.49882       -0.28675
C          2.29730        2.01110       -0.23177
C          3.37326        1.17736       -0.03242
C          2.89882       -0.24698        0.20011
C          3.34487       -0.74986        1.57885
O          2.62742       -0.94621        2.52184
O          4.67353       -0.92543        1.58214
C          5.22170       -1.40124        2.81422
C          3.34421       -1.28513       -0.83595
O          3.07187       -2.45671       -0.73119
O          4.01896       -0.75093       -1.84982
C          4.41661       -1.67147       -2.86967
C          4.61904        1.85040       -0.08203
C          4.44928        3.18489       -0.32255
H          5.21396        3.94407       -0.41292
S          2.78118        3.63683       -0.49035
C         -3.45259       -0.04920       -0.04485
C         -4.01552        1.28528       -0.09536
O         -3.54719        2.40583       -0.17613
N         -5.41412        1.00733       -0.00514
O         -6.36927        1.95802       -0.22307
C         -6.54842        2.76191        0.94591
C         -5.70474       -0.33562        0.01723
H         -6.73182       -0.67036        0.04365
C         -4.52407       -1.00798        0.00672
C         -3.95995       -2.34638        0.09222
O         -4.42565       -3.46270        0.11728
N         -2.56008       -2.06567        0.11044
O         -1.64578       -3.07273        0.16627
C         -1.42746       -3.63265       -1.13364
H          0.32005       -1.96961        0.42486
H          6.28710       -1.53201        2.62971
H          4.75896       -2.35049        3.09198
H          5.05532       -0.67110        3.60954
H          4.94770       -1.07325       -3.60853
H          3.53950       -2.14581       -3.31531
H          5.06991       -2.44130       -2.45306
H          5.58234        1.37543        0.05049
H         -7.32829        3.47535        0.67655
H         -5.62291        3.28918        1.18951
H         -6.87501        2.14618        1.79147
H         -0.67259       -4.40522       -0.98233
H         -1.04869       -2.86833       -1.82118
H         -2.35195       -4.07456       -1.51349
