30
COMP52_240000.log	Energy: -2076922.0278285
C          1.60084       -0.04448       -0.29332
C          0.22535        0.41439       -0.20423
C         -0.29574        1.68006       -0.20700
Cl         0.61722        3.15164       -0.33306
C         -1.71625        1.72531       -0.12944
O         -2.45286        2.85726       -0.12628
C         -2.28933        0.47894       -0.06348
S         -1.05385       -0.75211       -0.08067
C         -3.69997        0.16666        0.02416
S         -4.94057        1.39695        0.05197
C         -6.19487        0.22782        0.16506
H         -7.23267        0.52350        0.21547
C         -5.69094       -1.03340        0.17951
Cl        -6.63279       -2.49017        0.28225
C         -4.26774       -1.08210        0.09980
O         -3.52901       -2.21310        0.09682
C          2.05453       -1.16774       -0.93944
H          1.42767       -1.83037       -1.52476
N          3.38793       -1.42678       -0.83602
C          3.97516       -0.51297       -0.11423
S          2.93592        0.73527        0.49885
C          5.40196       -0.49901        0.16826
S          6.45766       -1.72908       -0.46111
C          7.76956       -0.94182        0.32702
H          8.77794       -1.32527        0.26354
C          7.32617        0.16337        0.99016
H          7.94882        0.83460        1.56830
N          5.98331        0.41099        0.89807
H         -1.86431        3.62328       -0.18470
H         -4.11523       -2.97992        0.16569
