47
COMP96_000011.log	Energy: -908230.5990542
C         -0.40063       -0.24485       -0.25607
C          1.08576       -0.27193       -0.34050
C          1.86588        0.26499        0.68945
C          3.24061        0.14463        0.62731
C          4.28557        0.63686        1.60174
H          4.24174        1.72581        1.72600
H          4.15611        0.19489        2.59756
C          5.57660        0.19363        0.95167
C          6.88295        0.36383        1.38538
C          7.92391       -0.13722        0.60387
H          8.95158       -0.01029        0.93119
C          7.65787       -0.79879       -0.59580
C          6.34785       -0.97203       -1.03451
C          5.30979       -0.47262       -0.25426
C          3.85506       -0.50455       -0.45622
C          3.08602       -1.04485       -1.47925
C          1.70027       -0.93386       -1.40754
C         -1.03883       -1.50782       -0.15518
C         -2.39526       -1.62547       -0.00787
C         -3.00464       -2.97783        0.11079
O         -2.37178       -4.01132        0.06520
N         -4.38347       -2.98904        0.28111
H         -4.81111       -3.90411        0.36479
C         -5.25211       -1.90613        0.35021
O         -6.44392       -2.07182        0.50303
C         -4.61273       -0.56871        0.22222
C         -5.39566        0.56137        0.27468
H         -6.46638        0.45388        0.40987
C         -4.80048        1.82744        0.15266
C         -3.43924        1.94722       -0.01773
C         -2.85601        3.30548       -0.15080
O         -3.50335        4.33134       -0.10568
N         -1.48673        3.32722       -0.34833
H         -1.07289        4.24229       -0.48484
C         -0.59455        2.26080       -0.44674
O          0.56819        2.48603       -0.70176
C         -1.18569        0.90312       -0.23559
C         -2.60091        0.80179       -0.07075
C         -3.20981       -0.46876        0.05001
H          1.38793        0.77245        1.52286
H          7.09557        0.87848        2.31865
H          8.48041       -1.18171       -1.19250
H          6.14490       -1.48679       -1.96953
H          3.54900       -1.54915       -2.32239
H          1.08503       -1.35355       -2.19880
H         -0.43552       -2.40991       -0.17525
H         -5.39778        2.73226        0.18938
