50
COMP77_230003.log	Energy: -2554018.2552084
C         -0.76899       -1.78413        0.63678
C          0.49888       -1.07875        0.80026
C          0.78251       -0.08292        1.70409
C         -0.17358        0.40603        2.64285
N         -0.96508        0.77157        3.40574
C          2.12863        0.38010        1.59527
Cl         2.75253        1.62527        2.61178
C          2.86126       -0.25882        0.62552
S          1.87481       -1.44959       -0.17039
C          4.24730       -0.01420        0.28018
C          4.89843       -0.60064       -0.73930
C          6.28908       -0.39377       -1.11235
C          7.36947        0.12609       -0.44131
Cl         7.35504        0.70261        1.18501
C          8.57928        0.12278       -1.21056
C          9.83656        0.60791       -0.73762
N         10.86301        0.99781       -0.36764
C          8.39922       -0.40608       -2.45978
H          9.14705       -0.52100       -3.23147
S          6.78203       -0.89493       -2.70850
C         -2.00578       -1.26873        0.33017
C         -2.28744        0.14099       -0.05276
O         -1.40969        0.94166       -0.29659
C         -3.73688        0.45790       -0.21317
C         -4.25071        1.71523       -0.42517
C         -3.58556        3.04455       -0.28862
O         -2.75607        3.32114        0.53526
O         -4.09951        3.90777       -1.17821
C         -3.58733        5.24031       -1.09410
S         -5.93462        1.65599       -0.77235
C         -5.97600       -0.05618       -0.62835
C         -7.23924       -0.78404       -0.95327
O         -7.30714       -1.76873       -1.63959
O         -8.29131       -0.13806       -0.43275
C         -9.56670       -0.70964       -0.73707
C         -4.74018       -0.56369       -0.30448
C         -4.45612       -1.98234        0.05203
O         -5.31648       -2.83020        0.16963
C         -3.02791       -2.26896        0.32990
C         -2.55363       -3.51512        0.62348
H         -3.12904       -4.42933        0.67789
S         -0.86896       -3.49413        0.91851
H          4.74965        0.70947        0.91193
H          4.35694       -1.29354       -1.38236
H         -4.11104        5.80216       -1.86615
H         -2.51068        5.24259       -1.27768
H         -3.78358        5.66376       -0.10637
H        -10.29938       -0.03988       -0.28938
H         -9.64320       -1.70960       -0.30447
H         -9.70913       -0.77358       -1.81821
