30
COMP62_130001.log	Energy: -1240662.0647035
C         -2.34429        0.53475        0.08054
C         -0.99842        0.01384        0.12808
C         -0.58995       -1.21680        0.56798
F         -1.39849       -2.13123        1.06017
C          0.81720       -1.42066        0.51322
C          1.43395       -2.62327        0.96722
N          1.92788       -3.60412        1.33710
C          1.48374       -0.30939        0.02868
S          0.37313        0.94964       -0.37479
C          2.91224       -0.13702       -0.18476
S          3.89409       -1.43142       -0.77317
C          5.31350       -0.46530       -0.76261
H          6.27079       -0.86576       -1.06174
C          5.03851        0.79318       -0.33196
F          5.93779        1.75869       -0.21373
C          3.66920        1.00652        0.00330
C          3.18321        2.24911        0.50469
N          2.79413        3.26411        0.90717
C         -3.52527       -0.10920       -0.14621
C         -4.09497       -1.40474       -0.52426
O         -3.61302       -2.49780       -0.72182
N         -5.47886       -1.09642       -0.65188
H         -6.15772       -1.79618       -0.90870
C         -5.74434        0.23474       -0.42058
H         -6.74775        0.62812       -0.51278
C         -4.58248        0.86355       -0.10835
C         -4.00474        2.17802        0.17210
O         -4.48276        3.27705        0.33407
N         -2.61100        1.88893        0.23857
H         -1.95557        2.56961        0.59545
