46
COMP82_320001.log	Energy: -1934279.4533888
C          0.07364        0.50480        0.06759
C         -1.38339        0.69100        0.02300
C         -2.10849        1.76792       -0.44842
C         -1.52979        2.93992       -1.02004
N         -1.05698        3.89812       -1.46976
C         -3.52235        1.56822       -0.34117
Cl        -4.66601        2.73691       -0.88497
C         -3.86498        0.36313        0.20235
S         -2.43909       -0.54011        0.60858
C         -5.19977       -0.17033        0.45888
S         -6.20037        0.46838        1.72900
C         -7.46427       -0.62474        1.37740
H         -8.38775       -0.61166        1.93940
C         -7.15014       -1.45851        0.33677
C         -8.03144       -2.46496       -0.16198
N         -8.75474       -3.27922       -0.55720
C         -5.84306       -1.19048       -0.18646
Cl        -5.17441       -2.06416       -1.51122
C          0.63119       -0.75531       -0.17555
C          2.00628       -0.96342       -0.13130
C          2.86202        0.09947        0.15829
C          4.32889        0.27845        0.22273
C          4.52537        1.76325        0.49535
O          5.54267        2.40804        0.64658
N          3.26595        2.30377        0.60116
H          3.12429        3.29065        0.75062
C          2.27468        1.36431        0.37689
C          0.91293        1.58906        0.35474
C          5.36096       -0.60550        0.10870
C          5.16171       -2.11993        0.10089
O          4.14443       -2.77644        0.20273
N          6.41282       -2.66920        0.00477
H          6.55310       -3.66711       -0.00345
C          7.40613       -1.70146       -0.07265
C          8.76444       -1.91092       -0.22251
C          9.58494       -0.78727       -0.31204
H         10.65627       -0.91861       -0.42950
C          9.04125        0.49263       -0.25998
C          7.66975        0.68685       -0.10592
C          6.82227       -0.41894        0.00228
H         -0.01456       -1.58984       -0.43131
H          2.40769       -1.94754       -0.31356
H          0.51270        2.57652        0.55388
H          9.17410       -2.91465       -0.27517
H          9.69105        1.35825       -0.33623
H          7.26297        1.68437       -0.05480
