30
COMP52_140200.log	Energy: -2201419.9371131
C         -0.71344        0.29832       -0.00228
C          0.64763       -0.19348       -0.00274
C          1.04135       -1.50365       -0.00336
F          0.20059       -2.55389       -0.00382
C          2.43493       -1.73051       -0.00233
O          3.00380       -2.95864       -0.00356
C          3.14762       -0.55771       -0.00105
S          2.07045        0.81773       -0.00159
C          4.58523       -0.40166        0.00050
S          5.68116       -1.76740        0.00211
C          7.07018       -0.74538        0.00380
H          8.07011       -1.15266        0.00551
C          6.70025        0.55684        0.00308
F          7.52931        1.61292        0.00426
C          5.29472        0.77280        0.00121
O          4.72006        1.99730       -0.00018
C         -1.21687        1.58248       -0.00219
Cl        -0.26130        3.02203       -0.00325
N         -2.56353        1.72560       -0.00106
C         -3.13892        0.55664       -0.00057
S         -2.06813       -0.80239       -0.00068
C         -4.58066        0.38048        0.00056
S         -5.65667        1.74324        0.00223
C         -6.98074        0.64460        0.00309
H         -8.00835        0.97635        0.00436
C         -6.50804       -0.63395        0.00195
Cl        -7.51666       -2.03792        0.00211
N         -5.15760       -0.78959        0.00059
H          2.30664       -3.62768        0.00339
H          5.41631        2.66771        0.00420
