40
COMP72_030000.log	Energy: -1692133.5247068
C         -0.41423       -1.06960       -0.60057
C          0.86793       -0.37108       -0.54700
C          1.20317        0.87396       -1.00153
H          0.49498        1.56205       -1.43704
C          2.57878        1.17734       -0.80963
C          3.13808        2.43550       -1.19327
N          3.56983        3.46104       -1.51909
C          3.29349        0.15760       -0.20359
S          2.25457       -1.17872        0.12802
C          4.71177        0.11370        0.12645
S          5.89859        0.79654       -0.93048
C          7.18898        0.32805        0.10232
H          8.20904        0.57186       -0.16010
C          6.74814       -0.32830        1.20915
H          7.38984       -0.70491        1.99528
C          5.32633       -0.45655        1.22805
C          4.63235       -1.09034        2.30407
N          4.09675       -1.61428        3.18912
C         -1.71366       -0.63441       -0.41420
C         -2.15221        0.74896       -0.08131
O         -1.37124        1.68777       -0.05541
C         -3.60198        0.90362        0.19987
C         -4.20577        2.07657        0.58326
C         -3.62734        3.43195        0.85120
S         -5.91053        1.83016        0.77788
C         -5.83445        0.16018        0.34362
C         -7.06581       -0.68962        0.31613
C         -4.53861       -0.18862        0.06524
C         -4.12326       -1.54354       -0.32769
O         -4.89634       -2.47938       -0.46380
C         -2.66289       -1.70534       -0.53221
C         -2.09036       -2.90934       -0.81255
H         -2.60218       -3.85303       -0.94139
S         -0.39220       -2.77687       -0.94523
H         -2.57058        3.43981        0.59132
H         -3.73181        3.69151        1.91055
H         -4.14637        4.19986        0.26798
H         -7.95669       -0.11004        0.57211
H         -6.96862       -1.52030        1.02101
H         -7.20045       -1.13310       -0.67397
