64
COMP87_430003.log	Energy: -1786325.8833188
C          0.34682        0.49903       -0.21956
C          1.80112        0.62601       -0.36488
C          2.52936        1.69960       -0.83752
C          2.00213        2.92420       -1.33845
N          1.68136        3.95340       -1.76911
C          3.94339        1.46828       -0.85200
O          4.85062        2.36763       -1.28384
C          4.29227        0.22091       -0.39154
S          2.86047       -0.65924        0.06729
C          5.59802       -0.39256       -0.24292
C          6.77402        0.16113       -0.60641
C          8.06087       -0.47906       -0.37371
C          8.44953       -1.23548        0.70647
O          7.71365       -1.52953        1.79774
C          9.80236       -1.69999        0.61029
C         10.43976       -2.50114        1.60448
N         10.96886       -3.15128        2.40491
C         10.41699       -1.27394       -0.53751
H         11.43057       -1.48598       -0.84688
S          9.38120       -0.31396       -1.50046
C         -0.28853       -0.71999       -0.48245
C         -1.66136       -0.85721       -0.34412
C         -2.43271        0.23321        0.06545
C         -3.87766        0.45703        0.19639
C         -4.02665        1.90976        0.57555
O         -5.02883        2.49878        0.89368
N         -2.72335        2.45567        0.61516
C         -2.37668        3.77192        0.96231
O         -1.25118        4.10158        1.25207
O         -3.41934        4.58564        0.90646
C         -3.14017        5.94273        1.26090
C         -1.77676        1.45695        0.30245
C         -0.40693        1.60891        0.18091
C         -4.94983       -0.37812        0.06456
C         -4.80713       -1.88215        0.12465
O         -3.81782       -2.52178        0.38065
N         -6.09735       -2.42211       -0.05878
C         -6.44094       -3.78195       -0.06291
O         -7.58190       -4.17678       -0.01175
O         -5.37190       -4.56072       -0.15190
C         -5.64875       -5.96266       -0.13161
C         -7.03845       -1.37303       -0.20274
C         -8.39803       -1.48196       -0.44888
C         -9.11903       -0.30370       -0.62949
H        -10.18655       -0.36640       -0.81729
C         -8.49362        0.93829       -0.57781
C         -7.13110        1.03447       -0.32344
C         -6.38304       -0.12854       -0.11471
H          4.40450        3.18648       -1.54579
H          5.59771       -1.40217        0.16666
H          6.77979        1.13417       -1.08846
H          6.93988       -0.94699        1.81494
H          0.29400       -1.57118       -0.82117
H         -2.12453       -1.81013       -0.54415
H         -4.09655        6.45693        1.18295
H         -2.41052        6.37236        0.57107
H         -2.75243        6.00005        2.28019
H          0.05898        2.55571        0.41214
H         -4.67485       -6.44445       -0.20033
H         -6.27890       -6.24096       -0.97928
H         -6.15093       -6.23917        0.79794
H         -8.87674       -2.44864       -0.49556
H         -9.07001        1.84499       -0.72949
H         -6.65889        2.00235       -0.26739
