24
COMP53_000010.log	Energy: -858267.5749084
C          1.20205        0.33024       -0.06004
C          2.65154        0.09407       -0.01991
C          3.50751        1.09101        0.46541
C          4.88288        0.89325        0.48331
H          5.53354        1.67549        0.86251
C          5.42460       -0.30707        0.03093
H          6.49889       -0.46292        0.05145
C          4.58134       -1.30821       -0.44266
C          3.20606       -1.10916       -0.47211
H          2.55760       -1.88728       -0.86557
C          0.54497        1.51101       -0.28734
H          1.03667        2.45387       -0.49554
N         -0.81975        1.46254       -0.27069
C         -1.22947        0.24761       -0.03861
S          0.03131       -0.92686        0.18802
C         -2.63098       -0.13457        0.03355
S         -3.89261        1.04252       -0.19401
C         -5.04539       -0.21437        0.04512
H         -6.10820       -0.02286        0.00470
C         -4.41027       -1.39826        0.27303
H         -4.90290       -2.34559        0.45315
N         -3.04135       -1.34890        0.26656
H          3.08788        2.01601        0.84962
H          4.99593       -2.24608       -0.79961
