31
COMP47_210001.log	Energy: -1965422.2931273
C          3.37322        0.49379       -0.00292
C          1.94580        0.73196       -0.01350
C          1.31249        1.94774       -0.01279
F          1.96507        3.10754       -0.00670
C         -0.10047        1.89464       -0.02313
Cl        -1.02544        3.35270       -0.04123
C         -0.57658        0.60302       -0.03105
S          0.74649       -0.52773       -0.02625
C         -1.91107        0.02999       -0.04846
C         -3.07100        0.70721        0.05102
C         -4.40915        0.14187        0.03423
C         -4.89781       -1.14372       -0.00087
Cl        -3.97456       -2.60178       -0.02901
C         -6.32151       -1.19642       -0.00086
F         -6.97400       -2.35247       -0.03089
C         -6.92177        0.02030        0.03400
H         -7.98045        0.23186        0.04055
S         -5.73996        1.26790        0.06887
C          4.08214       -0.68034        0.00265
C          3.79457       -2.13515        0.00470
O          2.73923       -2.72660       -0.00574
N          5.05702       -2.73884        0.02206
H          5.17633       -3.74192        0.01945
C          6.13912       -1.84646        0.02510
O          7.30519       -2.15178        0.03488
C          5.49070       -0.50818        0.01464
C          5.88854        0.78685        0.01725
H          6.88992        1.19478        0.02634
S          4.51317        1.83067        0.00444
H         -1.93526       -1.04983       -0.14919
H         -3.04300        1.78675        0.15475
