46
COMP81_000011.log	Energy: -1289608.6376848
C          0.72906       -0.12218        0.09718
C          2.19729       -0.17152        0.08242
C          3.05254        0.83262       -0.24034
H          2.72011        1.81346       -0.56217
C          4.43929        0.45954       -0.16458
C          5.56539        1.23908       -0.43645
H          5.45762        2.27413       -0.74620
C          6.81342        0.65051       -0.29674
S          8.36749        1.40886       -0.57327
C          9.19612       -0.06692       -0.15379
H         10.27747       -0.09163       -0.18100
C          8.36302       -1.07707        0.17704
H          8.70130       -2.06594        0.46430
C          6.97183       -0.70148        0.10660
C          5.84495       -1.48150        0.37508
H          5.95214       -2.51763        0.68129
C          4.59746       -0.89334        0.23452
S          3.04559       -1.65146        0.51031
C         -0.04169       -1.24931       -0.20784
C         -1.43285       -1.20733       -0.21008
C         -2.09567       -0.01833        0.09884
C         -3.50677        0.41737        0.14238
C         -3.44317        1.90224        0.48164
O         -4.33306        2.71164        0.64950
N         -2.11187        2.20379        0.62966
H         -1.80441        3.13306        0.86903
C         -1.29656        1.10898        0.38674
C          0.08261        1.08317        0.40505
C         -4.68024       -0.25869       -0.01892
C         -4.76052       -1.78063       -0.07624
O         -3.88154       -2.61760       -0.01777
N         -6.09403       -2.08913       -0.16274
H         -6.41329       -3.04368       -0.20943
C         -6.89285       -0.95524       -0.21793
C         -8.26705       -0.90945       -0.36705
C         -8.86724        0.34626       -0.44190
H         -9.94443        0.41711       -0.55904
C         -8.09672        1.50331       -0.37696
C         -6.71279        1.43960       -0.22053
C         -6.08306        0.19651       -0.12402
H          0.45195       -2.18020       -0.46926
H         -1.99724       -2.09660       -0.44207
H          0.65210        1.96820        0.67036
H         -8.85230       -1.82143       -0.43108
H         -8.57529        2.47471       -0.44577
H         -6.13147        2.34581       -0.15859
