60
COMP81_400000.log	Energy: -1482634.6680350
C          0.31444        0.14148        0.15349
C          1.78168        0.18215        0.11673
C          2.60557       -0.78861       -0.36698
O          2.18754       -1.95805       -0.91914
C          4.01756       -0.46814       -0.28921
C          5.13255       -1.22413       -0.68139
C          5.07232       -2.60025       -1.29073
C          6.37230       -0.62442       -0.46996
S          7.89734       -1.38553       -0.88050
C          8.77468        0.00286       -0.29812
H          9.85608        0.01637       -0.34360
C          7.96976        0.98036        0.17788
O          8.38536        2.16892        0.69228
C          6.55368        0.66117        0.09914
C          5.43795        1.41763        0.48897
C          5.49839        2.79331        1.09962
C          4.19830        0.81906        0.27571
S          2.67507        1.58100        0.68457
C         -0.45662        1.24228       -0.23484
C         -1.84841        1.20306       -0.22460
C         -2.51491        0.04383        0.17648
C         -3.92439       -0.38975        0.25925
C         -3.85376       -1.82569        0.75702
O         -4.74915       -2.60238        1.03042
N         -2.52117       -2.13119        0.91482
C         -2.04655       -3.40131        1.40457
C         -1.72024       -1.05624        0.56072
C         -0.33777       -1.03335        0.56826
C         -5.10061        0.24790       -0.00556
C         -5.18977        1.74432       -0.27180
O         -4.31284        2.58870       -0.26973
N         -6.51496        2.03525       -0.48315
C         -7.00717        3.36478       -0.74227
C         -7.29754        0.88983       -0.40171
C         -8.66449        0.81412       -0.60174
C         -9.26452       -0.44099       -0.50249
H        -10.33602       -0.53392       -0.65210
C         -8.50126       -1.56840       -0.21945
C         -7.12411       -1.47441       -0.01693
C         -6.49591       -0.23044       -0.09565
H          1.22955       -1.90703       -1.04994
H          4.05067       -2.94925       -1.42101
H          5.60677       -3.31906       -0.65716
H          5.56631       -2.60322       -2.27027
H          9.34907        2.19945        0.66448
H          6.52034        3.13866        1.23757
H          4.99623        2.79794        2.07495
H          4.97295        3.51515        0.46196
H          0.04146        2.14741       -0.56791
H         -2.41264        2.07252       -0.52226
H         -2.91900       -4.02946        1.58641
H         -1.49067       -3.27146        2.33913
H         -1.39764       -3.88273        0.66492
H          0.23068       -1.88206        0.93683
H         -6.15253        4.04168       -0.72336
H         -7.72717        3.66513        0.02631
H         -7.48995        3.41447       -1.72424
H         -9.24676        1.70013       -0.83267
H         -8.97893       -2.54010       -0.14766
H         -6.54866       -2.35615        0.21592
