33
COMP17_430000.log	Energy: -1392376.0607496
C         -3.84897        0.03491       -0.19276
C         -2.45896        0.41373       -0.11313
C         -1.94274        1.65037        0.23931
C         -2.70896        2.79102        0.60646
N         -3.27108        3.76279        0.90259
C         -0.51717        1.69213        0.22713
O          0.21501        2.78124        0.53733
C          0.05184        0.48896       -0.13101
S         -1.18144       -0.68625       -0.46597
C          1.44841        0.11499       -0.25060
C          2.49882        0.95046       -0.10553
C          3.88401        0.51215       -0.16728
C          4.42185       -0.67956        0.26042
O          3.77077       -1.69888        0.85460
C          5.83734       -0.76394        0.05048
C          6.62732       -1.89692        0.40974
N          7.28063       -2.80975        0.69788
C          6.34605        0.37244       -0.52082
H          7.37812        0.55941       -0.78151
S          5.13681        1.54698       -0.80084
C         -4.95287        0.77684       -0.37811
C         -6.20938        0.00385       -0.37819
C         -6.06230       -1.30974       -0.20200
H         -6.80478       -2.09466       -0.16858
S         -4.33934       -1.69657        0.01075
O         -3.82759       -2.47654       -1.10952
O         -4.07797       -2.13231        1.37458
H         -0.36529        3.50739        0.80751
H          1.63318       -0.92516       -0.51579
H          2.31948        2.00594        0.07590
H          2.90284       -1.38705        1.15059
H         -4.94665        1.84942       -0.53205
H         -7.16761        0.48878       -0.52303
