40
COMP62_340002.log	Energy: -1354145.1705035
C          1.95656       -0.54879        0.07870
C          0.55696       -0.88678       -0.03199
C         -0.06942       -2.08633       -0.33714
C          0.50706       -3.33232       -0.70688
N          0.80290       -4.39773       -1.06121
C         -1.48712       -1.97461       -0.35616
O         -2.33844       -2.98113       -0.64062
C         -1.94190       -0.70839       -0.05692
S         -0.60687        0.35913        0.22778
C         -3.31932       -0.27099        0.00054
S         -4.66821       -1.32488       -0.34858
C         -5.80230       -0.07880       -0.08199
H         -6.86248       -0.26047       -0.18762
C         -5.19857        1.10287        0.26168
C         -5.85696        2.33363        0.54721
N         -6.31146        3.37266        0.79239
C         -3.77218        0.98956        0.30971
O         -2.92570        1.98840        0.62678
C          2.55633        0.67649       -0.08144
C          2.30010        2.02598       -0.57739
O          1.30703        2.63226       -0.92126
N          3.60879        2.59325       -0.53372
O          3.89030        3.84985       -0.97706
C          3.47538        4.83076       -0.01991
C          4.57284        1.72297       -0.09126
H          5.60619        2.03534       -0.03858
C          3.95979        0.54471        0.19757
C          4.22897       -0.81646        0.62318
O          5.20472       -1.37795        1.06291
N          2.95954       -1.45995        0.39863
O          2.64634       -2.61989        1.06695
C          3.39871       -3.73293        0.55803
H         -1.84727       -3.78966       -0.84910
H         -3.40748        2.81931        0.74557
H          3.75701        5.78664       -0.46254
H          3.99862        4.68567        0.93174
H          2.39328        4.78608        0.12460
H          2.92230       -4.60743        1.00102
H          4.44002       -3.65246        0.87064
H          3.31916       -3.78433       -0.53035
