36
COMP57_420300.log	Energy: -2241189.8467415
C          1.94526       -0.06995       -0.42532
C          0.59328        0.45462       -0.33374
C          0.15797        1.75120       -0.44894
Cl         1.15817        3.12046       -0.80793
C         -1.24692        1.90741       -0.28522
O         -1.91632        3.07359       -0.37145
C         -1.88555        0.71585       -0.02990
S         -0.74871       -0.59423       -0.00224
C         -3.30877        0.56347        0.18856
C         -3.94483       -0.59201        0.46726
C         -5.38286       -0.71977        0.62081
C         -6.37198       -0.01107       -0.02250
O         -6.20981        0.94719       -0.95645
C         -7.68367       -0.41944        0.37316
Cl        -9.11176        0.30371       -0.27666
C         -7.67987       -1.42540        1.28823
H         -8.53800       -1.89987        1.74170
S         -6.07934       -1.90817        1.68959
C          2.39038       -1.20108       -1.08334
C          1.56341       -2.05202       -1.88607
N          0.89118       -2.73587       -2.53606
N          3.72238       -1.48671       -0.96577
C          4.30956       -0.59259       -0.22681
S          3.28540        0.66423        0.38995
C          5.73445       -0.61317        0.06931
S          6.77193       -1.85532       -0.57022
C          8.08702       -1.11242        0.23621
H          9.09160       -1.50734        0.18227
C          7.65752       -0.00352        0.91578
C          8.51451        0.84015        1.69533
N          9.22870        1.50530        2.31868
N          6.31849        0.27546        0.81753
H         -1.29464        3.79171       -0.55522
H         -3.86254        1.49966        0.15947
H         -3.36597       -1.50887        0.58132
H         -5.29746        0.91478       -1.27942
