42
COMP51_300420.log	Energy: -1807368.4969281
C          1.74572       -0.49288       -0.33885
C          0.31157       -0.30844       -0.23870
C         -0.42207        0.85221       -0.27990
C          0.19269        2.12400       -0.48727
N          0.73531        3.13447       -0.65906
C         -1.84969        0.63357       -0.14512
C         -2.88062        1.59016       -0.16432
O         -2.45123        2.85741       -0.29804
C         -3.31752        3.97472       -0.28725
C         -4.19480        1.11802       -0.05559
S         -5.69789        2.04216       -0.07626
C         -6.64079        0.61273        0.09342
H         -7.71987        0.68021        0.13298
C         -5.90037       -0.52342        0.16549
C         -6.50957       -1.80682        0.31739
N         -7.04224       -2.82596        0.46480
C         -4.47431       -0.27145        0.08228
C         -3.44491       -1.21260        0.11437
O         -3.68727       -2.54952        0.20733
C         -3.72841       -3.05832        1.54053
C         -2.14904       -0.73290       -0.00935
S         -0.71252       -1.71791       -0.01097
C          2.42298       -1.52179       -0.97355
O          1.90113       -2.53991       -1.67457
N          3.77353       -1.49686       -0.88122
C          4.15993       -0.46243       -0.18336
S          2.90910        0.57202        0.40237
C          5.55796       -0.16851        0.08544
S          6.82140       -1.18948       -0.51428
C          7.96184       -0.13742        0.23551
H          9.02551       -0.31765        0.17210
C          7.30452        0.88503        0.86900
O          7.83960        1.90609        1.56609
N          5.94766        0.86276        0.78235
H         -2.66169        4.83975       -0.38631
H         -3.86577        4.04700        0.65804
H         -4.01152        3.95450       -1.13389
H         -3.93440       -4.12428        1.44734
H         -4.52965       -2.58401        2.11690
H         -2.76762       -2.90566        2.04631
H          0.95484       -2.39967       -1.81963
H          8.80057        1.82703        1.55642
