27
COMP11_000010.log	Energy: -1181555.4142982
C          2.57304        0.71406       -0.00092
C          1.15445        0.41780       -0.00088
C          0.14410        1.33224       -0.00069
H          0.30734        2.40407       -0.00015
C         -1.16091        0.74235       -0.00045
C         -2.40420        1.38250        0.00033
H         -2.46749        2.46628        0.00092
C         -3.54032        0.59091        0.00036
S         -5.20311        1.14288        0.00121
C         -5.77872       -0.50267        0.00054
H         -6.84470       -0.68857        0.00080
C         -4.79026       -1.42233       -0.00024
H         -4.96418       -2.49203       -0.00077
C         -3.47433       -0.83036       -0.00034
C         -2.23396       -1.46821       -0.00103
H         -2.16928       -2.55173       -0.00163
C         -1.09380       -0.67667       -0.00107
S          0.55809       -1.23743       -0.00186
C          3.20564        1.89868       -0.00185
C          4.67624        1.81221       -0.00109
C          5.16550        0.57179        0.00066
H          6.18954        0.22594        0.00080
S          3.82530       -0.59687        0.00131
O          3.77523       -1.32550        1.26217
O          3.77719       -1.32859       -1.25783
H          2.69548        2.85477       -0.00318
H          5.29458        2.70271       -0.00197
