33
COMP11_100000.log	Energy: -1355390.3339409
C         -3.01045        0.56362       -0.00226
C         -1.58526        0.33714       -0.00268
C         -0.61580        1.29196       -0.00202
F         -0.92395        2.59645       -0.00104
C          0.74076        0.82086       -0.00145
C          1.94934        1.53610       -0.00009
C          2.06052        3.03735        0.00095
C          3.10059        0.75533        0.00047
S          4.72790        1.41369        0.00237
C          5.41038       -0.18636        0.00211
H          6.47983       -0.33952        0.00306
C          4.46388       -1.14332        0.00070
F          4.76545       -2.44785        0.00025
C          3.09924       -0.66406       -0.00018
C          1.89352       -1.37684       -0.00160
C          1.78341       -2.87820       -0.00231
C          0.73894       -0.59707       -0.00221
S         -0.87512       -1.26943       -0.00404
C         -3.72373        1.70340       -0.00417
C         -5.18467        1.50723       -0.00184
C         -5.58587        0.23573        0.00206
H         -6.58178       -0.18400        0.00394
S         -4.16647       -0.83411        0.00305
O         -4.06757       -1.56318       -1.25482
O         -4.06372       -1.55606        1.26474
H          1.08936        3.52628       -0.00113
H          2.61578        3.37947       -0.88073
H          2.61158        3.37860        0.88560
H          2.75699       -3.36246       -0.00314
H          1.23042       -3.22085       -0.88522
H          1.23152       -3.22162        0.88100
H         -3.28120        2.69006       -0.00723
H         -5.86532        2.35102       -0.00341
