27
COMP11_100010.log	Energy: -1306058.4906903
C         -2.83085        0.55273       -0.00407
C         -1.40613        0.32126       -0.00416
C         -0.43292        1.27148       -0.00202
F         -0.68677        2.58391        0.00003
C          0.91105        0.78722       -0.00157
C          2.09845        1.52077        0.00107
H          2.07997        2.60530        0.00289
C          3.28314        0.80359        0.00130
S          4.91151        1.45579        0.00446
C          5.59421       -0.15046        0.00282
H          6.66435       -0.29960        0.00412
C          4.64461       -1.10509       -0.00003
F          4.89191       -2.41656       -0.00178
C          3.29188       -0.61507       -0.00101
C          2.10648       -1.34594       -0.00359
H          2.12426       -2.43050       -0.00524
C          0.91832       -0.62979       -0.00383
S         -0.69826       -1.29367       -0.00659
C         -3.52984        1.70139       -0.00766
C         -4.99302        1.52247       -0.00452
C         -5.40707        0.25510        0.00206
H         -6.40790       -0.15298        0.00511
S         -4.00040       -0.83130        0.00494
O         -3.90651       -1.56366       -1.25137
O         -3.90151       -1.55068        1.26830
H         -3.07355        2.68194       -0.01278
H         -5.66469        2.37342       -0.00747
