33
COMP11_200000.log	Energy: -1807662.4895194
C         -3.21328        0.17814       -0.34789
C         -1.76525        0.16790       -0.28139
C         -0.91560        1.22476       -0.13530
Cl        -1.51503        2.84831        0.01437
C          0.48807        0.87023       -0.07859
C          1.62986        1.67997        0.06336
C          1.58827        3.18183        0.19249
C          2.84850        1.00599        0.08052
S          4.40276        1.80753        0.25143
C          5.23256        0.29289        0.16842
H          6.31093        0.25361        0.23505
C          4.40078       -0.75928        0.02174
Cl         5.04280       -2.37286       -0.08286
C          2.99275       -0.40391       -0.03540
C          1.85391       -1.21111       -0.17667
C          1.90513       -2.71286       -0.30242
C          0.63315       -0.53791       -0.19192
S         -0.90535       -1.35151       -0.36316
C         -4.06790        1.02920       -0.93178
C         -5.49367        0.69089       -0.74910
C         -5.72017       -0.41068       -0.03443
H         -6.65261       -0.88592        0.23632
S         -4.17051       -1.11572        0.48813
O         -3.94596       -2.39930       -0.16698
O         -4.01687       -1.00221        1.93142
H          1.11360        3.64433       -0.67682
H          2.59369        3.60089        0.27775
H          1.02853        3.49072        1.07912
H          2.36411       -3.16869        0.57879
H          2.48864       -3.01920       -1.17452
H          0.90542       -3.14087       -0.40931
H         -3.75727        1.89167       -1.50784
H         -6.27744        1.30184       -1.18182
