35
COMP11_200020.log	Energy: -1902011.7436086
C          3.34001        0.21977       -0.30402
C          1.89178        0.19912       -0.27119
C          1.03958        1.23802       -0.02577
Cl         1.58920        2.84311        0.32143
C         -0.35512        0.86568       -0.01785
C         -1.51456        1.62718        0.19085
O         -1.49066        2.96877        0.43151
C         -1.54689        3.76959       -0.74618
C         -2.73503        0.96354        0.17506
S         -4.27477        1.74379        0.44677
C         -5.09963        0.23196        0.22288
H         -6.17759        0.18334        0.29256
C         -4.26774       -0.80241       -0.02926
Cl        -4.86467       -2.40743       -0.30245
C         -2.86872       -0.42815       -0.05836
C         -1.71208       -1.18633       -0.27467
O         -1.73813       -2.52389       -0.52889
C         -1.66574       -3.34382        0.63707
C         -0.48947       -0.52317       -0.25370
S          1.03680       -1.31424       -0.52485
C          4.20573        1.15199       -0.72651
C          5.62760        0.79376       -0.55349
C          5.84149       -0.40273       -0.00730
H          6.76930       -0.91040        0.21634
S          4.28268       -1.18545        0.34899
O          4.08417       -1.30053        1.78667
O          4.08566       -2.35076       -0.50556
H         -1.49691        4.80594       -0.41066
H         -2.48419        3.60082       -1.28935
H         -0.69837        3.55746       -1.40623
H         -1.71473       -4.37389        0.28353
H         -2.50935       -3.14540        1.30702
H         -0.72287       -3.18074        1.17169
H          3.90793        2.09122       -1.17442
H          6.41874        1.46668       -0.86331
