25
COMP12_000000.log	Energy: -1133733.9414725
C          2.16379        0.54275       -0.00212
C          0.80652        0.06909       -0.00269
C          0.37398       -1.23524       -0.00518
H          1.04771       -2.08375       -0.00731
C         -1.03568       -1.35153       -0.00462
H         -1.55478       -2.30307       -0.00599
C         -1.68448       -0.14122       -0.00183
S         -0.54275        1.17011       -0.00108
C         -3.11345        0.12095        0.00000
S         -4.26031       -1.18787       -0.00066
C         -5.59137       -0.09472        0.00252
H         -6.60297       -0.47646        0.00315
C         -5.17996        1.20481        0.00383
H         -5.86101        2.04725        0.00577
C         -3.76333        1.32940        0.00224
H         -3.24589        2.28253        0.00290
C          2.69146        1.77829       -0.00385
C          4.16343        1.81174       -0.00221
C          4.75838        0.61729        0.00090
H          5.80821        0.36094        0.00250
S          3.52284       -0.65958        0.00263
O          3.53268       -1.39292        1.26250
O          3.53578       -1.39953       -1.25338
H          2.10328        2.68919       -0.00659
H          4.70541        2.75069       -0.00366
