25
COMP12_010000.log	Energy: -1258235.9802651
C         -2.40260        0.56037       -0.17945
C         -1.04977        0.06815       -0.15194
C         -0.64343       -1.23972       -0.23133
H         -1.30830       -2.08755       -0.33963
C          0.76170       -1.34042       -0.18603
F          1.38936       -2.51873       -0.25199
C          1.44238       -0.15441       -0.07363
S          0.29969        1.15668       -0.01243
C          2.87224        0.04963        0.00289
S          4.02487       -1.25716       -0.03125
C          5.35334       -0.16974        0.10057
H          6.36204       -0.55810        0.12191
C          4.96126        1.13266        0.16891
H          5.62328        1.98411        0.25557
C          3.55000        1.23589        0.11186
F          2.92274        2.41758        0.16140
C         -2.91307        1.77819       -0.41969
C         -4.38226        1.85174       -0.32549
C         -4.98694        0.70358       -0.01610
H         -6.03718        0.47982        0.10633
S         -3.76537       -0.56873        0.21271
O         -3.87287       -1.59473       -0.81884
O         -3.69529       -0.96542        1.61275
H         -2.31595        2.64498       -0.68070
H         -4.91174        2.77999       -0.50718
