27
COMP12_040000.log	Energy: -1228100.8576753
C         -2.39890        0.58121       -0.15307
C         -1.04778        0.09375       -0.12836
C         -0.64419       -1.21751       -0.19845
H         -1.33251       -2.05023       -0.29712
C          0.76211       -1.35009       -0.16281
O          1.43741       -2.52708       -0.21987
C          1.44002       -0.15102       -0.06789
S          0.30681        1.17248       -0.01503
C          2.87044        0.04841       -0.00059
S          4.01313       -1.27320       -0.02301
C          5.34685       -0.19771        0.09202
H          6.35498       -0.58790        0.11485
C          4.96209        1.10797        0.14544
H          5.65002        1.94360        0.21864
C          3.54673        1.24512        0.09235
O          2.87471        2.42619        0.12566
C         -2.91996        1.80316       -0.35728
C         -4.38893        1.85818       -0.27916
C         -4.98932        0.69529       -0.01605
H         -6.03905        0.45873        0.08320
S         -3.75913       -0.57081        0.18459
O         -3.85008       -1.56672       -0.87928
O         -3.69954       -1.01791        1.57069
H          0.80960       -3.25856       -0.23334
H          3.50281        3.15184        0.21249
H         -2.32808        2.68379       -0.57989
H         -4.92567        2.78669       -0.43800
