27
COMP12_230000.log	Energy: -1826223.4547537
C         -2.79889       -0.80077       -0.30656
C         -1.52004       -0.11070       -0.26126
C         -1.20584        1.19393       -0.53796
Cl        -2.33217        2.37060       -1.07863
C          0.18735        1.47843       -0.39321
C          0.75788        2.75707       -0.66943
N          1.22447        3.79435       -0.89168
C          0.91850        0.37319       -0.00066
S         -0.10645       -0.99438        0.20952
C          2.35218        0.28558        0.24789
S          3.18691        1.50823        1.13586
C          4.68770        0.68853        0.99304
H          5.59023        1.10440        1.41751
C          4.55897       -0.47612        0.30178
Cl         5.86555       -1.54877       -0.03627
C          3.21809       -0.72235       -0.13375
C          2.83484       -1.86126       -0.90330
N          2.51831       -2.78697       -1.52492
C         -3.09518       -1.96058       -0.90675
C         -4.43462       -2.49727       -0.59165
C         -5.12376       -1.77475        0.29040
H         -6.12798       -1.91341        0.66706
S         -4.18669       -0.33610        0.77300
O         -3.72062       -0.43224        2.14894
O         -4.88396        0.85600        0.31883
H         -2.40952       -2.48385       -1.56466
H         -4.80681       -3.40175       -1.05813
