29
COMP12_340000.log	Energy: -1343823.0885646
C         -2.86816        0.05630       -0.21584
C         -1.49497        0.49336       -0.14332
C         -1.03481        1.79483       -0.02493
C         -1.84363        2.96143        0.05622
N         -2.44347        3.95399        0.11325
C          0.38503        1.87828        0.02763
O          1.09024        3.02333        0.14412
C          1.00320        0.65090       -0.04576
S         -0.17697       -0.61799       -0.19614
C          2.42619        0.38860       -0.01328
S          3.62290        1.65275        0.13365
C          4.91172        0.53512        0.10027
H          5.93776        0.86761        0.16994
C          4.46921       -0.75659       -0.01750
C          5.28559       -1.92308       -0.07146
N          5.87637       -2.92040       -0.12204
C          3.04106       -0.83846       -0.08267
O          2.33510       -1.97984       -0.20237
C         -3.98085        0.71638       -0.57768
C         -5.21645       -0.08358       -0.49387
C         -5.04744       -1.33955       -0.07891
H         -5.77165       -2.12967        0.06182
S         -3.32730       -1.62921        0.26871
O         -2.75115       -2.57946       -0.67496
O         -3.11858       -1.81216        1.69770
H          0.49418        3.78325        0.20194
H          2.92511       -2.74675       -0.21863
H         -3.99497        1.74456       -0.91912
H         -6.17767        0.33831       -0.76318
