27
COMP13_000000.log	Energy: -635557.1137834
C          0.80648        0.45499       -0.34884
C         -0.65080        0.41396       -0.17697
C         -1.30156       -0.81602       -0.35535
C         -2.67876       -0.94426       -0.21893
C         -3.36264       -2.27312       -0.41601
C         -3.40939        0.19729        0.11583
H         -4.48801        0.12924        0.23615
C         -2.77434        1.41562        0.31006
C         -1.39246        1.55925        0.17082
C         -0.76374        2.90895        0.41021
C          1.61758        1.34987       -0.92786
C          3.05927        1.03300       -0.85341
C          3.34961       -0.09423       -0.20565
H          4.30401       -0.56665       -0.02042
S          1.84284       -0.85690        0.35803
O          1.75274       -0.81898        1.81239
O          1.64242       -2.12407       -0.34031
H         -0.71085       -1.68980       -0.61564
H         -2.65273       -3.04216       -0.73193
H         -4.14829       -2.20458       -1.17650
H         -3.83429       -2.61365        0.51251
H         -3.36511        2.28563        0.58577
H         -1.42121        3.53232        1.02257
H         -0.59142        3.44708       -0.52983
H          0.19881        2.82441        0.92324
H          1.26321        2.24155       -1.43060
H          3.80362        1.67975       -1.30398
