37
COMP15_000030.log	Energy: -908103.5516171
C          2.74776        0.19360       -0.35123
C          1.38584       -0.33592       -0.28405
C          0.32090        0.56374       -0.15887
C         -0.96948        0.05209       -0.11965
N         -2.21905        0.70377        0.01132
C         -2.48455        2.05937        0.11590
O         -3.59032        2.53036        0.24396
O         -1.36438        2.79071        0.05532
C         -1.56746        4.19965        0.17812
C         -3.23403       -0.28307        0.02115
C         -4.61596       -0.14565        0.13164
C         -5.37611       -1.30996        0.11191
H         -6.45524       -1.22882        0.19954
C         -4.78892       -2.57382       -0.01435
C         -3.41179       -2.69899       -0.12344
C         -2.63172       -1.54433       -0.10510
C         -1.20121       -1.33409       -0.19172
C         -0.13299       -2.21951       -0.30606
C          1.15811       -1.72160       -0.35135
C          3.21254        1.34701       -0.84994
C          4.66379        1.55901       -0.67917
C          5.30128        0.57338       -0.04759
H          6.34975        0.45846        0.18889
S          4.13748       -0.70187        0.38811
O          3.96611       -0.77529        1.83334
O          4.42483       -1.92051       -0.36342
H          0.50981        1.62276       -0.06616
H         -0.57577        4.64238        0.09224
H         -2.01136        4.43731        1.14699
H         -2.22158        4.56230       -0.61728
H         -5.07535        0.82688        0.23189
H         -5.41542       -3.46019       -0.02513
H         -2.94671       -3.67531       -0.22113
H         -0.30933       -3.28912       -0.36007
H          1.99799       -2.40102       -0.45178
H          2.58726        2.07126       -1.36019
H          5.15379        2.44894       -1.05762
