31
COMP17_040000.log	Energy: -1276659.5541021
C         -3.38089        0.64327       -0.24579
C         -2.03437        0.15113       -0.20526
C         -1.55519       -1.15078       -0.31430
O         -2.23953       -2.28543       -0.47837
C         -0.13638       -1.22121       -0.26478
H          0.38436       -2.16779       -0.33568
C          0.46988       -0.00055       -0.13359
S         -0.70487        1.27552       -0.05725
C          1.88077        0.33556       -0.04628
C          2.88043       -0.56278       -0.08990
C          4.29423       -0.24322       -0.00592
C          4.91793        0.97406        0.12260
H          4.38776        1.91908        0.18345
C          6.33644        0.86610        0.16797
O          7.19582        1.91024        0.29024
C          6.77933       -0.42474        0.07394
H          7.80375       -0.76609        0.08518
S          5.46411       -1.52283       -0.07169
C         -3.89404        1.82952       -0.62517
C         -5.35198        1.94203       -0.46989
C         -5.96357        0.86515        0.03206
H         -7.01085        0.67113        0.21285
S         -4.74176       -0.35886        0.40559
O         -4.90531       -1.54723       -0.44993
O         -4.59550       -0.55409        1.84016
H         -3.20588       -2.14148       -0.55099
H          2.11495        1.39227        0.06264
H          2.63846       -1.61806       -0.19818
H          6.69197        2.72993        0.34224
H         -3.30083        2.63319       -1.04552
H         -5.88282        2.83750       -0.77328
