34
COMP19_000020.log	Energy: -1301312.9660940
C          2.79216        0.53952       -0.34423
C          1.37735        0.28167       -0.23752
C          0.37763        1.22558       -0.11051
C         -0.89633        0.63605       -0.02375
C         -0.85476       -0.73545       -0.11031
S          0.73058       -1.34714       -0.27482
C         -2.20863       -1.25878       -0.08533
C         -3.09691       -0.22020        0.02561
C         -2.34756        1.11468        0.08058
O         -2.69876        1.71311        1.29701
C         -1.94958        2.86184        1.64397
O         -2.55952        1.97396       -1.00537
C         -3.90539        2.35732       -1.21552
C         -4.44151       -0.65411        0.13710
C         -4.53329       -2.01807        0.07979
H         -5.42694       -2.62528        0.12400
S         -2.98766       -2.78614       -0.08420
C          3.44955        1.60323       -0.83320
C          4.91701        1.51884       -0.71886
C          5.37774        0.40066       -0.15523
H          6.39346        0.07816        0.02475
S          4.00739       -0.63311        0.31155
O          3.89302       -0.70796        1.76203
O          3.98155       -1.86004       -0.47758
H          0.58019        2.28870       -0.06240
H         -2.45949        3.31422        2.49613
H         -1.91223        3.58146        0.81792
H         -0.92808        2.59362        1.94206
H         -4.36679        2.72519       -0.29196
H         -4.49641        1.52214       -1.61177
H         -3.88332        3.15931       -1.95524
H         -5.29823       -0.00374        0.26221
H          2.95894        2.44895       -1.30084
H          5.55868        2.31023       -1.08963
