42
COMP51_000230.log	Energy: -2316279.7486505
C          1.44382       -0.79007        0.26482
C          0.00467       -0.57997        0.20132
C         -0.61481        0.62393        0.30694
H         -0.10403        1.55334        0.51149
C         -2.03950        0.54386        0.13512
C         -2.98026        1.59282        0.18891
C         -2.50595        2.98473        0.45103
O         -1.35605        3.31690        0.63677
O         -3.51363        3.86465        0.46155
C         -3.15570        5.22510        0.70501
C         -4.32886        1.27425       -0.01060
S         -5.69586        2.37082       -0.00216
C         -6.78800        1.06167       -0.31999
H         -7.84682        1.26795       -0.41003
C         -6.19021       -0.14180       -0.43195
H         -6.70885       -1.06690       -0.62765
C         -4.75889       -0.06194       -0.25805
C         -3.81783       -1.10912       -0.30746
C         -4.28611       -2.50320       -0.56853
O         -5.43324       -2.84554       -0.74890
O         -3.26970       -3.37444       -0.58403
C         -3.61298       -4.73909       -0.82384
C         -2.46735       -0.78969       -0.11083
S         -1.10879       -1.89312       -0.11520
C          2.20038       -1.85702        0.69113
Cl         1.56346       -3.33910        1.31062
N          3.54878       -1.72286        0.63894
C          3.86380       -0.54918        0.16542
S          2.52836        0.46472       -0.25727
C          5.23753       -0.10682       -0.00645
S          6.57419       -1.12629        0.42503
C          7.63863        0.12399       -0.08627
H          8.71266        0.02431       -0.03693
C          6.90960        1.18681       -0.53108
Cl         7.60169        2.65098       -1.13374
N          5.55654        1.06239       -0.48861
H         -4.09124        5.78093        0.66366
H         -2.46071        5.57724       -0.06026
H         -2.68923        5.32506        1.68756
H         -2.67106       -5.28414       -0.78478
H         -4.08176       -4.84553       -1.80460
H         -4.30120       -5.09726       -0.05525
