29
COMP22_420000.log	Energy: -1827061.0334090
C          2.35645        0.84999        0.02465
C          1.06099        0.16362       -0.00685
C          0.69949       -1.08684       -0.47303
O          1.46466       -2.05286       -0.98769
C         -0.71754       -1.29859       -0.40689
Cl        -1.42690       -2.76764       -0.96718
C         -1.42122       -0.24881        0.10812
S         -0.34809        1.03430        0.55074
C         -2.85584       -0.14213        0.35830
S         -3.63377       -1.13901        1.54624
C         -5.16707       -0.40675        1.24875
H         -6.04568       -0.73368        1.78806
C         -5.08968        0.55971        0.28929
O         -6.08319        1.33346       -0.20034
C         -3.75926        0.71004       -0.21578
Cl        -3.38341        1.84943       -1.45591
C          3.61665        0.15791        0.10233
N          3.79417       -1.16406        0.10059
S          5.39774       -1.44385        0.21011
N          5.93144        0.08474        0.26945
C          4.86214        0.88019        0.19984
C          4.88162        2.30189        0.21361
H          5.82460        2.82925        0.29261
C          3.67954        2.93645        0.11949
H          3.63959        4.02114        0.11523
C          2.44697        2.22462        0.02160
H          1.53775        2.81155       -0.06521
H          2.38609       -1.93781       -0.67226
H         -6.91155        1.09878        0.23412
