62
COMP87_040003.log	Energy: -1670602.3230696
C         -0.86825        0.44320       -0.14261
C         -2.32412        0.52193       -0.23502
C         -3.08758        1.44434       -0.92282
O         -2.64430        2.48527       -1.66304
C         -4.48556        1.21304       -0.82871
H         -5.21099        1.86086       -1.30523
C         -4.79668        0.10827       -0.07995
S         -3.35864       -0.65473        0.52372
C         -6.09148       -0.46427        0.24768
C         -7.26045       -0.07394       -0.28933
C         -8.55767       -0.62826        0.06015
C         -8.90230       -1.48418        1.07707
H         -8.19615       -1.85788        1.81171
C        -10.28872       -1.81112        1.07948
O        -10.89340       -2.63426        1.97525
C        -10.98569       -1.19985        0.07483
H        -12.04227       -1.28396       -0.13140
S         -9.95116       -0.21824       -0.88900
C         -0.20480       -0.79195       -0.08946
C          1.17687       -0.87100       -0.03168
C          1.94918        0.29580       -0.05993
C          3.38105        0.56552        0.08754
C          3.50784        2.07009        0.11600
O          4.51079        2.73775        0.12702
N          2.19584        2.58921       -0.00145
C          1.84158        3.93370       -0.17935
O          0.76748        4.28080       -0.61506
O          2.80778        4.75426        0.20314
C          2.53077        6.14273        0.00513
C          1.26983        1.52714       -0.09074
C         -0.10962        1.62478       -0.11071
C          4.46985       -0.25806        0.14291
C          4.41454       -1.68584       -0.34172
O          3.49170       -2.25693       -0.86711
N          5.71020       -2.22487       -0.17041
C          6.13208       -3.51520       -0.51754
O          7.29118       -3.85885       -0.50694
O          5.11321       -4.30210       -0.83577
C          5.47868       -5.62953       -1.21667
C          6.56626       -1.24298        0.38661
C          7.89180       -1.38844        0.76584
C          8.51690       -0.29861        1.36728
H          9.55672       -0.39000        1.66623
C          7.82946        0.89002        1.59330
C          6.50275        1.02539        1.20254
C          5.85449       -0.04147        0.57326
H         -1.68086        2.45184       -1.74166
H         -6.08529       -1.27269        0.97601
H         -7.26138        0.70484       -1.04918
H        -10.23341       -2.96175        2.59621
H         -0.78241       -1.71072       -0.11723
H          1.65363       -1.83787        0.00122
H          3.42212        6.66116        0.35427
H          1.65475        6.44366        0.58389
H          2.35412        6.34914       -1.05262
H         -0.58517        2.59356       -0.04613
H          4.53826       -6.12413       -1.45431
H          5.98589       -6.13771       -0.39338
H          6.13609       -5.61093       -2.08873
H          8.41517       -2.31761        0.59678
H          8.32956        1.72547        2.07239
H          5.98448        1.95654        1.36837
