34
COMP71_100011.log	Energy: -1699407.1129156
C         -1.17348        1.43408        0.19880
C          0.22323        1.04191        0.09293
C          0.84816        0.03031        0.74031
F          0.25074       -0.77767        1.60725
C          2.24675       -0.10989        0.45511
C          3.13796       -1.05446        0.96141
H          2.80041       -1.81266        1.65975
C          4.45356       -0.97918        0.53105
S          5.77778       -2.03079        0.99478
C          6.88625       -1.14785       -0.02378
H          7.92607       -1.43349       -0.09130
C          6.28143       -0.12931       -0.66460
F          6.89679        0.70575       -1.50513
C          4.87845        0.01591       -0.38338
C          3.98733        0.96194       -0.88741
H          4.32277        1.71900       -1.58803
C          2.67201        0.88623       -0.45657
S          1.34967        1.93088       -0.93104
C         -2.31487        0.67035        0.09114
C         -2.37225       -0.77188       -0.27008
O         -1.39255       -1.45444       -0.50411
C         -3.74778       -1.32556       -0.34503
C         -4.02980       -2.62850       -0.63944
H         -3.31795       -3.41283       -0.85687
S         -5.72289       -2.92129       -0.63032
C         -6.07420       -1.28810       -0.23039
H         -7.08952       -0.93829       -0.10349
C         -4.93147       -0.55117       -0.10756
C         -4.88413        0.88965        0.22122
O         -5.87896        1.56592        0.41011
C         -3.50968        1.44657        0.29180
C         -3.25542        2.76472        0.53006
H         -3.98961        3.54108        0.69707
S         -1.57581        3.09358        0.53424
