35
COMP41_000013.log	Energy: -1406358.8651597
C         -0.85128        1.39874       -0.07042
C          0.48443        0.82666       -0.03494
C          1.64451        1.52887        0.10594
H          1.68332        2.60466        0.24205
C          2.81971        0.71138        0.06670
C          4.15664        1.10460        0.17949
H          4.41439        2.14988        0.31933
C          5.12820        0.12021        0.10677
S          6.86156        0.34613        0.21605
C          7.12561       -1.36634        0.02120
H          8.13820       -1.74768        0.02315
C          5.98582       -2.07694       -0.11860
H          5.95871       -3.15226       -0.25081
C          4.80326       -1.25201       -0.07432
C          3.46789       -1.64236       -0.18242
H          3.20867       -2.68771       -0.31894
C          2.49297       -0.65720       -0.11204
S          0.76560       -0.90155       -0.20722
C         -2.10234        0.83632       -0.02362
C         -2.68548       -0.51921        0.09222
O         -2.14177       -1.58667        0.20155
N         -4.09922       -0.30554        0.09198
C         -5.07533       -1.32251        0.24769
O         -6.08581       -1.18010        0.87995
O         -4.70989       -2.41403       -0.41331
C         -5.58177       -3.53456       -0.24900
C         -4.45876        1.07418        0.00239
O         -5.57382        1.51524       -0.04273
C         -3.16022        1.77803       -0.07178
C         -2.75804        3.06853       -0.16583
H         -3.35504        3.96852       -0.21477
S         -1.03461        3.13773       -0.20352
H         -5.09445       -4.35683       -0.77046
H         -6.55865       -3.32198       -0.68921
H         -5.70602       -3.76869        0.81046
