34
COMP62_200000.log	Energy: -1626548.5019790
C          2.11821       -0.46230       -0.23033
C          0.72497       -0.80326        0.01737
C          0.16979       -1.83056        0.74148
Cl         1.08503       -3.02397        1.60079
C         -1.24483       -1.78884        0.81569
H         -1.83535       -2.50118        1.37877
C         -1.76668       -0.71540        0.14226
S         -0.52137        0.23661       -0.58882
C         -3.16552       -0.34087       -0.00597
S         -4.40512       -1.55538       -0.10258
C         -5.64165       -0.36683       -0.24400
H         -6.68160       -0.64654       -0.33147
C         -5.11228        0.88781       -0.23231
Cl        -6.06708        2.33017       -0.35589
C         -3.69658        0.91737       -0.09508
H         -3.11582        1.83025       -0.03693
C          2.72998        0.74563       -0.04699
C          2.51686        2.08593        0.48730
O          1.53944        2.66582        0.91761
N          3.81358        2.67528        0.39113
C          4.07773        4.03883        0.79123
C          4.72755        1.79081       -0.13825
H          5.76312        2.08209       -0.25963
C          4.10656        0.61703       -0.42218
C          4.32744       -0.74465       -0.89418
O          5.29277       -1.32140       -1.34932
N          3.04792       -1.35775       -0.74058
C          2.80619       -2.68758       -1.26042
H          3.14775        4.43693        1.20107
H          4.38263        4.64972       -0.06441
H          4.85463        4.07625        1.56075
H          3.40071       -2.81237       -2.16783
H          1.74656       -2.80293       -1.49536
H          3.10164       -3.45405       -0.53969
