34
COMP57_130000.log	Energy: -1694547.9529559
C         -2.44344       -0.17145       -0.24848
C         -1.06127        0.26371       -0.19170
C         -0.53270        1.54075       -0.21083
C         -1.28667        2.74635       -0.30120
N         -1.88873        3.73456       -0.37050
C          0.88962        1.52873       -0.16044
F          1.58211        2.66595       -0.17737
C          1.46466        0.28943       -0.10243
S          0.20341       -0.91035       -0.08750
C          2.85714       -0.11236       -0.03933
C          3.90140        0.73804       -0.04266
C          5.29415        0.33401        0.02871
C          5.86261       -0.90900        0.10757
F          5.16590       -2.04388        0.13128
C          7.28687       -0.91722        0.16543
C          8.07226       -2.10539        0.24785
N          8.70964       -3.07063        0.31430
C          7.79639        0.35518        0.12882
H          8.83824        0.64045        0.15804
S          6.55934        1.53087        0.02533
C         -2.91191       -1.35042       -0.77667
H         -2.29282       -2.09198       -1.26915
N         -4.25141       -1.56193       -0.68037
C         -4.82855       -0.55422       -0.08352
S         -3.77386        0.73294        0.40770
C         -6.25834       -0.47545        0.16894
S         -7.33829       -1.73905       -0.33825
C         -8.63679       -0.83627        0.33930
H         -9.65474       -1.19739        0.30216
C         -8.17182        0.32463        0.88343
H         -8.78297        1.07227        1.37311
N         -6.82243        0.52475        0.78529
H          3.03842       -1.18058        0.01830
H          3.72111        1.80639       -0.10178
