30
COMP74_400001.log	Energy: -1572885.3625954
C          0.03760        1.17531       -0.23660
C         -1.29395        0.58475       -0.14211
C         -2.20626        0.82658        0.85313
O         -2.04084        1.59734        1.94967
C         -3.43338        0.14269        0.62565
S         -4.93102        0.00743        1.47946
C         -5.54966       -1.05564        0.24183
H         -6.55349       -1.44958        0.32875
C         -4.65406       -1.29105       -0.75935
O         -4.80724       -2.06112       -1.86330
C         -3.42701       -0.59669       -0.53665
S         -1.92627       -0.48662       -1.38369
C          1.28679        0.60309       -0.13969
C          1.56071       -0.82926        0.16580
O          0.69026       -1.65525        0.36122
C          3.00410       -1.17339        0.22180
C          3.48199       -2.42838        0.46792
H          2.89972       -3.32144        0.64901
S          5.20001       -2.45784        0.46183
C          5.29760       -0.77541        0.12895
H          6.24841       -0.27151        0.02265
C          4.05579       -0.21732        0.02483
C          3.79087        1.21161       -0.25000
O          4.67196        2.03805       -0.40185
C          2.34797        1.55709       -0.31242
C          1.89381        2.82665       -0.52389
H          2.50139        3.71032       -0.66556
S          0.18468        2.88632       -0.54638
H         -1.12080        1.88996        1.99840
H         -5.68408       -2.46239       -1.85369
