42
COMP67_320002.log	Energy: -1885104.1596568
C          3.02276       -0.38160        0.21219
C          1.63430       -0.76533        0.03619
C          1.06581       -1.92567       -0.42308
Cl         1.93838       -3.30013       -0.97891
C         -0.35870       -1.87703       -0.47876
C         -1.14712       -2.97732       -0.92269
N         -1.80369       -3.86344       -1.28195
C         -0.86977       -0.65653       -0.05921
S          0.40974        0.40435        0.39007
C         -2.23016       -0.16108        0.05935
C         -3.34077       -0.81942       -0.32466
C         -4.70217       -0.32741       -0.20173
C         -5.22853        0.81283        0.38428
C         -4.46096        1.81140        1.04944
N         -3.82224        2.61666        1.58702
C         -6.65354        0.88263        0.26149
Cl        -7.58329        2.18971        0.89738
C         -7.18982       -0.17859       -0.39842
H         -8.23272       -0.35788       -0.61592
S         -5.97202       -1.28568       -0.88511
C          3.61499        0.81197       -0.08993
C          3.38334        2.04756       -0.83399
O          2.42281        2.53554       -1.38765
N          4.66619        2.66878       -0.74131
O          4.98016        3.82395       -1.39175
C          4.44593        4.95717       -0.69778
C          5.59762        1.91307       -0.07262
H          6.61351        2.26899        0.02662
C          4.98460        0.77509        0.34806
C          5.22375       -0.48975        1.02451
O          6.15396       -0.94818        1.64472
N          3.98741       -1.19476        0.79180
O          3.60352       -2.22287        1.61624
C          4.38119       -3.40240        1.37584
H         -2.31605        0.82979        0.49468
H         -3.25352       -1.80295       -0.77586
H          4.74921        5.81703       -1.29601
H          4.87281        5.02857        0.30869
H          3.35602        4.89512       -0.65217
H          3.82889       -4.20228        1.87090
H          5.37616       -3.29138        1.80964
H          4.45201       -3.60215        0.30386
