35
COMP47_440001.log	Energy: -1452891.8805424
C         -2.95752       -0.61250        0.04031
C         -1.61055       -0.10196        0.04812
C         -1.14277        1.13288        0.45069
O         -1.80297        2.19982        0.92220
C          0.28076        1.23181        0.41892
O          0.90020        2.37244        0.78761
C          0.91237        0.09261       -0.00748
S         -0.26740       -1.13201       -0.39841
C          2.32331       -0.18288       -0.18613
C          3.31673        0.71376        0.00200
C          4.72647        0.38989       -0.11582
C          5.34996       -0.80323        0.14258
O          4.79242       -1.96618        0.58354
C          6.76633       -0.77245       -0.04445
O          7.54861       -1.85533        0.17087
C          7.20999        0.45041       -0.44359
H          8.22862        0.73834       -0.65682
S          5.91053        1.58380       -0.58016
C         -4.18176        0.00949       -0.05215
C         -4.70531        1.37018       -0.24350
O         -4.12539        2.44606       -0.30455
N         -6.07949        1.22518       -0.35292
H         -6.70115        2.01159       -0.47933
C         -6.53886       -0.10218       -0.23239
O         -7.69073       -0.44811       -0.28500
C         -5.29098       -0.88387       -0.04472
C         -4.95439       -2.19001        0.05797
H         -5.59298       -3.06241        0.06578
S         -3.23442       -2.34331        0.17177
H         -2.66698        2.33833        0.45577
H          0.19975        2.99957        1.03141
H          2.56912       -1.18415       -0.53688
H          3.06306        1.73675        0.26582
H          3.94227       -1.76545        1.00137
H          6.97576       -2.56589        0.49261
