61
COMP99_000023.log	Energy: -1740342.1537375
C          0.28746        0.03860       -0.00372
C         -1.15927       -0.23327       -0.04755
C         -1.81117       -1.19776        0.68637
C         -3.16343       -1.33205        0.30795
C         -3.51954       -0.47520       -0.70252
S         -2.21904        0.50441       -1.22263
C         -4.93492       -0.63294       -0.99108
C         -5.46238       -1.59041       -0.16421
C         -4.37784       -2.14516        0.76431
O         -4.30929       -3.52175        0.51053
C         -3.21589       -4.19106        1.10804
O         -4.54763       -1.87323        2.12661
C         -5.74736       -2.36125        2.69611
C         -6.82737       -1.86142       -0.43447
C         -7.30249       -1.07507       -1.44803
H         -8.30266       -1.05084       -1.85818
S         -6.09019       -0.01826       -2.09820
C          1.12510       -1.10372       -0.12072
C          2.48969       -1.00185       -0.15815
C          3.30735       -2.23667       -0.27566
O          2.84173       -3.35550       -0.29452
N          4.68654       -2.03677       -0.36935
C          5.50279       -3.22798       -0.53040
O          5.79876       -3.67874       -1.59687
O          5.83603       -3.69069        0.66078
C          6.64809       -4.87055        0.64221
C          5.36932       -0.81683       -0.32176
O          6.57940       -0.78770       -0.37865
C          4.51861        0.39439       -0.19670
C          5.11408        1.63483       -0.15810
H          6.19401        1.70554       -0.22820
C          4.31888        2.78537       -0.03062
C          2.94855        2.68098        0.06687
C          2.15363        3.92359        0.21240
O          2.62619        5.03916        0.17606
N          0.78984        3.72743        0.41603
C          0.00397        4.90511        0.74124
O         -0.01495        5.40117        1.82841
O         -0.64827        5.30339       -0.33644
C         -1.50794        6.43108       -0.13409
C          0.09422        2.51065        0.44405
O         -1.07470        2.51196        0.76041
C          0.88730        1.29180        0.11359
C          2.30450        1.41811        0.02571
C          3.11248        0.26689       -0.11148
H         -1.32639       -1.75737        1.47792
H         -3.41356       -5.25889        1.00066
H         -3.12324       -3.94204        2.17137
H         -2.27612       -3.95093        0.59406
H         -5.90431       -3.41944        2.45739
H         -6.61237       -1.77780        2.35635
H         -5.64106       -2.24403        3.77580
H         -7.43018       -2.59892        0.08069
H          0.67059       -2.08476       -0.20783
H          6.83103       -5.11029        1.68816
H          7.58617       -4.67095        0.12025
H          6.11576       -5.68393        0.14466
H          4.76714        3.77257       -0.00226
H         -1.96723        6.62078       -1.10261
H         -0.92487        7.29323        0.19614
H         -2.26632        6.19112        0.61403
