44
COMP77_000002.log	Energy: -1719306.4420673
C         -0.35945       -1.44150       -0.32134
C          0.94852       -0.80348       -0.39957
C          1.33950        0.32880       -1.07162
H          0.64243        0.94914       -1.61474
C          2.72358        0.59488       -0.96351
H          3.19973        1.44570       -1.43689
C          3.40690       -0.32727       -0.20554
S          2.31899       -1.54226        0.38475
C          4.81466       -0.39518        0.14904
C          5.73249        0.53071       -0.17989
C          7.14373        0.46509        0.16529
C          7.84399       -0.48425        0.87001
H          7.38557       -1.37309        1.28792
C          9.22686       -0.18355        0.99759
H          9.93525       -0.81478        1.52107
C          9.57107        0.98944        0.39026
H         10.54665        1.45180        0.33406
S          8.21012        1.74205       -0.34475
C         -1.64536       -0.93002       -0.26753
C         -2.03574        0.50499       -0.25684
O         -1.24347        1.42016       -0.41541
C         -3.47742        0.74887       -0.04616
C         -4.03192        1.99517        0.05541
O         -3.37893        3.15205        0.00218
C         -4.10927        4.35505        0.15760
S         -5.77877        1.92432        0.27729
C         -5.73593        0.16549        0.22070
O         -6.83492       -0.57379        0.33287
C         -8.07456        0.07853        0.54068
C         -4.46516       -0.30665        0.04965
C         -4.09963       -1.72705       -0.02525
O         -4.89888       -2.64681        0.03242
C         -2.63871       -1.96650       -0.16048
C         -2.11197       -3.22203       -0.14943
H         -2.66169       -4.14958       -0.06962
S         -0.40688       -3.18515       -0.27196
H          5.12354       -1.26733        0.72154
H          5.41938        1.40589       -0.74561
H         -3.37535        5.15672        0.08516
H         -4.59973        4.39519        1.13790
H         -4.85574        4.46916       -0.63822
H         -8.82054       -0.71311        0.59743
H         -8.31367        0.74640       -0.29612
H         -8.06850        0.64449        1.48021
