34
COMP62_120000.log	Energy: -1751045.7836412
C         -2.30038       -0.62848       -0.15466
C         -0.86785       -0.82721       -0.02657
C         -0.17607       -1.80903        0.63239
F         -0.74495       -2.80742        1.29772
C          1.23247       -1.65288        0.59858
Cl         2.29145       -2.75873        1.38725
C          1.61776       -0.52648       -0.08316
S          0.24100        0.33133       -0.68268
C          2.97012       -0.04335       -0.34341
S          4.08631       -0.97450       -1.29487
C          5.31811        0.21699       -1.14679
H          6.29122        0.08657       -1.59646
C          4.88423        1.27230       -0.41187
F          5.61723        2.34169       -0.12748
C          3.54264        1.13699        0.05130
Cl         2.78337        2.33883        1.02099
C         -2.99541        0.54904       -0.10884
C         -2.85065        1.97575        0.15532
O         -1.88843        2.69380        0.34628
N         -4.19846        2.44299        0.13072
C         -4.53920        3.83415        0.32726
C         -5.07979        1.41569       -0.12247
H         -6.14483        1.60543       -0.16080
C         -4.38710        0.25805       -0.28081
C         -4.53676       -1.17721       -0.47833
O         -5.49429       -1.88809       -0.69959
N         -3.19675       -1.66434       -0.38109
C         -2.89282       -3.05084       -0.67053
H         -3.60733        4.36322        0.53390
H         -5.21776        3.95337        1.17729
H         -5.00077        4.25808       -0.56997
H         -3.74888       -3.45811       -1.21059
H         -2.74112       -3.62723        0.24383
H         -1.99745       -3.11797       -1.29409
