46
COMP65_000013.log	Energy: -917759.8952752
C          0.86900        1.02115       -0.03852
C         -0.54800        0.68295       -0.13708
C         -0.98991       -0.50712        0.44254
C         -2.33224       -0.83488        0.30058
N         -3.01112       -1.93837        0.77442
H         -2.58619       -2.71381        1.25492
C         -4.33378       -1.86424        0.38419
C         -5.37955       -2.75685        0.62045
C         -6.62694       -2.43078        0.11019
H         -7.45937       -3.10793        0.27639
C         -6.83706       -1.24693       -0.61562
C         -5.79359       -0.36484       -0.84764
C         -4.52532       -0.67088       -0.34700
C         -3.23943       -0.01175       -0.40314
C         -2.77332        1.16598       -0.99355
C         -1.44053        1.50674       -0.86092
C          1.95450        0.19482        0.03303
C          2.31070       -1.21875        0.07105
O          1.65070       -2.21985        0.22415
N          3.75868       -1.17696       -0.07145
C          4.67694       -2.23613       -0.09296
O          5.86552       -2.05353       -0.21347
O          4.07995       -3.41122        0.03073
C          4.96063       -4.53648        0.00881
C          4.21402        0.14180       -0.18778
H          5.26797        0.32536       -0.33452
C          3.15530        0.96909       -0.10684
C          2.79628        2.38218       -0.22308
O          3.45265        3.38759       -0.28811
N          1.34980        2.33790       -0.17352
C          0.60975        3.52068        0.07255
O          0.69801        4.51753       -0.58923
O         -0.16682        3.35628        1.14423
C         -1.09715        4.41289        1.38507
H         -0.29939       -1.16213        0.96170
H         -5.22328       -3.67419        1.17970
H         -7.82745       -1.02572       -1.00035
H         -5.95704        0.54996       -1.41000
H         -3.44361        1.80066       -1.56514
H         -1.07179        2.40024       -1.35506
H          4.31621       -5.40366        0.14346
H          5.69097       -4.46751        0.81792
H          5.48542       -4.59141       -0.94758
H         -1.61705        4.13740        2.30119
H         -1.80380        4.48477        0.55386
H         -0.57507        5.36392        1.50496
