52
COMP71_000030.log	Energy: -1910141.1489665
C         -1.30609       -1.42711       -0.66748
C          0.06882       -0.98578       -0.44796
C          0.60266        0.24063       -0.65601
H          0.03299        1.09123       -0.99110
C          2.01231        0.29337       -0.37654
C          2.86411        1.41093       -0.46008
C          2.31756        2.70962       -0.95645
O          1.30437        2.84223       -1.60362
O          3.09352        3.74402       -0.60669
C          2.66493        5.02483       -1.06889
C          4.20390        1.24612       -0.09682
S          5.46358        2.46439       -0.11064
C          6.63765        1.29636        0.40631
H          7.66371        1.60858        0.55257
C          6.13629        0.05962        0.60379
H          6.71455       -0.78712        0.93899
C          4.72238       -0.01221        0.32104
C          3.87164       -1.13307        0.39977
C          4.42512       -2.44149        0.85610
O          5.54064       -2.62819        1.28813
O          3.52919       -3.43081        0.73874
C          3.96068       -4.72028        1.17156
C          2.52562       -0.96220        0.05045
S          1.25681       -2.16432        0.08879
C         -2.52351       -0.83248       -0.39155
C         -2.74233        0.47917        0.27857
O         -1.82065        1.21177        0.59916
C         -4.16655        0.83212        0.52699
C         -4.59048        1.98505        1.14077
C         -3.81259        3.13069        1.71184
S         -6.32304        2.01687        1.21473
C         -6.49688        0.49120        0.42392
C         -7.84931       -0.09489        0.16518
C         -5.26163       -0.01744        0.11789
C         -5.05220       -1.30661       -0.55917
O         -5.96157       -2.04303       -0.91170
C         -3.63040       -1.66542       -0.77392
C         -3.25062       -2.85133       -1.32679
H         -3.90699       -3.63363       -1.68220
S         -1.54855       -2.98868       -1.40233
H          3.41634        5.72810       -0.71277
H          1.68329        5.26548       -0.65481
H          2.60776        5.03852       -2.15968
H          3.11780       -5.38483        0.98716
H          4.21165       -4.69985        2.23451
H          4.83629       -5.03808        0.60122
H         -2.74881        2.96317        1.55381
H         -4.00160        3.23208        2.78619
H         -4.10097        4.07267        1.23289
H         -8.64365        0.56357        0.52658
H         -7.94297       -1.06787        0.65538
H         -7.99049       -0.26864       -0.90505
