40
COMP72_120002.log	Energy: -2372029.3655527
C          0.41114        1.70037        0.16638
C         -0.87462        1.05985        0.40892
C         -1.21103        0.21716        1.42683
F         -0.38351       -0.14942        2.38951
C         -2.55855       -0.23508        1.38401
Cl        -3.19538       -1.32526        2.55577
C         -3.25738        0.27881        0.32536
S         -2.24667        1.31985       -0.62398
C         -4.65541        0.05615       -0.03201
S         -5.94578        0.71809        0.92526
C         -7.15152        0.05529       -0.10855
H         -8.20523        0.19304        0.08376
C         -6.58413       -0.62726       -1.13522
F         -7.26455       -1.24825       -2.09226
C         -5.15865       -0.63186       -1.10276
Cl        -4.21536       -1.45060       -2.28829
C          1.66674        1.14544        0.06644
C          1.98109       -0.31212        0.10825
O          1.12352       -1.16670        0.24335
C          3.41457       -0.62269       -0.04614
C          3.92815       -1.88989       -0.01381
O          3.23545       -3.01057        0.15443
C          3.92638       -4.24727        0.15699
S          5.67855       -1.89822       -0.21749
C          5.69306       -0.14253       -0.34811
O          6.81593        0.54240       -0.53742
C          8.04373       -0.16276       -0.58850
C          4.43811        0.38828       -0.23891
C          4.12761        1.82342       -0.31289
O          4.95543        2.70092       -0.49011
C          2.68169        2.13424       -0.15529
C          2.18600        3.40263       -0.23061
H          2.75462        4.30605       -0.40330
S          0.48834        3.42831       -0.01598
H          3.16461       -5.01063        0.30961
H          4.65655       -4.28885        0.97437
H          4.42887       -4.41772       -0.80298
H          8.81154        0.59228       -0.75192
H          8.05225       -0.87973       -1.41858
H          8.23613       -0.68349        0.35735
