37
COMP47_410002.log	Energy: -1554815.9564518
C         -2.67563       -1.12360       -0.09741
C         -1.23164       -1.17882       -0.04715
C         -0.44097       -2.29774       -0.06331
F         -0.91013       -3.55544       -0.13302
C          0.95285       -2.07476       -0.00764
O          1.87353       -3.06703       -0.01518
C          1.24940       -0.73357        0.05656
S         -0.20536        0.22475        0.04694
C          2.53412       -0.06555        0.11494
C          3.73357       -0.68358        0.17979
C          5.00408        0.01939        0.16768
C          5.32242        1.19332       -0.47296
O          4.52443        1.95289       -1.25579
C          6.68577        1.56500       -0.27089
F          7.18494        2.67535       -0.80997
C          7.39151        0.69437        0.49244
H          8.42908        0.76927        0.78170
S          6.40327       -0.62874        0.98796
C         -3.53077       -0.05162       -0.08860
C         -3.42882        1.42437       -0.02327
O         -2.47309        2.15867        0.04510
N         -4.77099        1.84562       -0.03216
O         -5.10141        3.15973       -0.13028
C         -5.30115        3.72797        1.16677
C         -5.73506        0.82646       -0.13240
O         -6.92797        0.98441       -0.16714
C         -4.90646       -0.40606       -0.15210
C         -5.13076       -1.73964       -0.21002
H         -6.07106       -2.27041       -0.26580
S         -3.63052       -2.59711       -0.18973
H          1.41640       -3.91400       -0.10501
H          2.49428        1.02253        0.14838
H          3.76898       -1.76808        0.23694
H          3.75240        1.42635       -1.50882
H         -5.54805        4.77293        0.97694
H         -4.38303        3.66259        1.75846
H         -6.13230        3.23288        1.67800
