33
COMP79_000011.log	Energy: -1550982.4385556
C          0.51675        1.08081        0.24815
C         -0.80803        0.48151        0.23955
C         -1.23731       -0.70611        0.78819
C         -2.62483       -0.89988        0.62493
C         -3.24110        0.13501       -0.04566
S         -2.14152        1.36692       -0.49879
C         -4.64789       -0.16210       -0.18361
C         -4.90682       -1.37934        0.40634
C         -3.63594       -1.96649        0.97635
H         -3.38665       -2.93088        0.51823
H         -3.70708       -2.12871        2.05851
C         -6.27570       -1.74667        0.32226
C         -7.01289       -0.79886       -0.33082
H         -8.07364       -0.81252       -0.54048
S         -6.05944        0.55581       -0.85085
C          1.78857        0.53104        0.18609
C          2.13791       -0.90390        0.06101
O          1.33612       -1.82236        0.11251
C          3.58722       -1.17466       -0.12501
C          4.10844       -2.42424       -0.30213
H          3.56179       -3.35604       -0.34660
S          5.81906       -2.37511       -0.45538
C          5.85591       -0.66725       -0.27570
H          6.78404       -0.11286       -0.29991
C          4.59928       -0.16054       -0.10866
C          4.27261        1.26809        0.07145
O          5.11437        2.14814        0.10124
C          2.81863        1.54329        0.18902
C          2.32984        2.81124        0.26311
H          2.90841        3.72476        0.26954
S          0.62097        2.82110        0.34312
H         -0.56136       -1.39508        1.27232
H         -6.70228       -2.66009        0.71961
