34
COMP51_300310.log	Energy: -1685033.9044997
C          1.08206        0.63770        0.17561
C         -0.35565        0.40696        0.11263
C         -1.03793       -0.71229        0.51390
C         -0.43961       -1.85399        1.12328
N          0.00315       -2.80410        1.61970
C         -2.46265       -0.62394        0.29338
C         -3.43874       -1.57378        0.59274
H         -3.16817       -2.52131        1.04810
C         -4.75137       -1.25321        0.28584
S         -6.16190       -2.25677        0.55160
C         -7.19752       -1.04602       -0.11772
H         -8.26369       -1.21873       -0.17973
C         -6.53487        0.06850       -0.52645
C         -7.16414        1.20577       -1.11486
N         -7.63838        2.14723       -1.59752
C         -5.10487       -0.01475       -0.30652
C         -4.13042        0.93573       -0.60074
H         -4.40112        1.88554       -1.05110
C         -2.81606        0.61365       -0.29522
S         -1.41312        1.61732       -0.56473
C          1.75866        1.78210        0.55158
C          1.13492        2.98658        1.01385
N          0.62608        3.95743        1.38812
N          3.12211        1.72161        0.49791
C          3.50300        0.54896        0.08185
S          2.23234       -0.57347       -0.27600
C          4.90082        0.17589       -0.07805
S          6.18219        1.28430        0.31637
C          7.30728        0.08165       -0.15136
H          8.37492        0.24360       -0.10621
C          6.64812       -1.04696       -0.56255
C          7.30546       -2.23561       -1.01958
N          7.86306       -3.18209       -1.38586
N          5.27928       -0.98705       -0.51898
