34
COMP53_000320.log	Energy: -1117670.2784330
C         -0.80282       -0.12549       -0.11635
C         -2.17573        0.38016        0.00713
C         -3.19452       -0.49705        0.40630
C         -4.51766       -0.07642        0.47635
O         -5.55609       -0.87236        0.82829
C         -5.28827       -2.24332        1.04690
C         -4.82487        1.25187        0.17801
H         -5.85782        1.57650        0.24396
C         -3.82659        2.14049       -0.18834
C         -2.49863        1.71856       -0.27635
O         -1.46732        2.52849       -0.62503
C         -1.73159        3.88822       -0.89897
C         -0.39025       -1.40918       -0.43721
C         -1.25850       -2.48547       -0.81371
N         -1.96768       -3.35376       -1.10842
N          0.95701       -1.64801       -0.41810
C          1.59450       -0.56349       -0.08947
S          0.60790        0.83066        0.19735
C          3.04600       -0.50210        0.00089
S          4.02104       -1.90579       -0.33470
C          5.41461       -0.96593       -0.00352
H          6.41296       -1.37515       -0.06437
C          5.05098        0.31175        0.32731
C          5.98442        1.34805        0.65807
N          6.75955        2.16765        0.92046
N          3.70336        0.57058        0.32956
H         -2.93656       -1.51347        0.66866
H         -6.25589       -2.71129        1.22887
H         -4.64626       -2.39076        1.92494
H         -4.81572       -2.70572        0.17138
H         -4.09277        3.16732       -0.40815
H         -0.76633        4.33746       -1.13180
H         -2.16792        4.39254       -0.02835
H         -2.40166        3.99648       -1.76039
