38
COMP41_200000.log	Energy: -1914182.9776985
C         -2.43812        0.60911       -0.57719
C         -0.99116        0.47456       -0.42896
C         -0.09106        1.38593        0.02816
Cl        -0.60756        2.94878        0.58325
C          1.28082        0.91692        0.05177
C          2.46547        1.55873        0.45466
C          2.51802        2.97855        0.95977
C          3.62658        0.79579        0.36432
S          5.20950        1.39907        0.83161
C          5.94268       -0.10930        0.41772
H          7.00622       -0.25528        0.54548
C          5.06317       -1.02031       -0.04738
Cl         5.63549       -2.60226       -0.49647
C          3.68602       -0.54969       -0.10632
C          2.50480       -1.17952       -0.52523
C          2.37559       -2.58284       -1.05967
C          1.34063       -0.41612       -0.42239
S         -0.23092       -1.02935       -0.87415
C         -3.43076       -0.17169       -0.06062
C         -3.54451       -1.32960        0.86711
O         -2.68666       -1.95913        1.43817
N         -4.92444       -1.56976        0.96459
C         -5.49386       -2.62313        1.77632
C         -5.71117       -0.69457        0.20383
O         -6.91702       -0.72563        0.14369
C         -4.73568        0.21205       -0.45537
C         -4.76374        1.28353       -1.28771
H         -5.61668        1.78329       -1.72607
S         -3.15713        1.83441       -1.59705
H          2.08872        3.67523        0.23557
H          3.54664        3.29554        1.14722
H          1.96297        3.08956        1.89548
H          3.33056       -3.07649       -1.20970
H          1.85285       -2.57087       -2.02376
H          1.78123       -3.19786       -0.37279
H         -4.66789       -3.15839        2.24606
H         -6.07693       -3.30592        1.15344
H         -6.14748       -2.19983        2.54321
