34
COMP57_420000.log	Energy: -2125474.8256474
C         -2.55218       -0.12144       -0.32528
C         -1.17081        0.31127       -0.21427
C         -0.63336        1.55306        0.00327
Cl        -1.53845        3.01893        0.21699
C          0.79242        1.58886        0.01584
O          1.52229        2.70779        0.20275
C          1.35676        0.35293       -0.19479
S          0.10908       -0.84650       -0.38613
C          2.75107       -0.04079       -0.25709
C          3.80936        0.78946       -0.13775
C          5.19140        0.33647       -0.14837
C          5.70666       -0.83668        0.35151
O          5.02744       -1.81577        0.98637
C          7.12166       -0.93579        0.17277
Cl         8.02713       -2.30857        0.70602
C          7.66384        0.15046       -0.43929
H          8.70333        0.31212       -0.68498
S          6.46530        1.32791       -0.80780
C         -3.02520       -1.17132       -1.07427
H         -2.41266       -1.78096       -1.72865
N         -4.35891       -1.42703       -0.98137
C         -4.92906       -0.58297       -0.16670
S         -3.87218        0.59149        0.55192
C         -6.35245       -0.58130        0.13230
S         -7.42840       -1.74161       -0.58637
C         -8.72272       -1.00849        0.27924
H         -9.73643       -1.37325        0.19400
C         -8.25923        0.03173        1.02870
H         -8.86875        0.66035        1.66568
N         -6.91488        0.27072        0.94289
H          0.92479        3.45641        0.34479
H          2.92951       -1.09661       -0.45765
H          3.63781        1.85520       -0.01909
H          4.16408       -1.46494        1.25005
