36
COMP47_310000.log	Energy: -1529030.6955341
C          3.03928        0.86008       -0.04546
C          1.59608        0.99349       -0.04814
C          0.87437        2.15804       -0.07494
F          1.43696        3.36292       -0.10662
C         -0.53487        2.00620       -0.07129
C         -1.41864        3.12116       -0.10605
N         -2.14449        4.02545       -0.12952
C         -0.89978        0.66838       -0.04091
S          0.49383       -0.35394       -0.01785
C         -2.20104        0.02711       -0.02656
C         -3.38181        0.66518        0.09421
C         -4.68773        0.03243        0.10169
C         -5.08180       -1.27879       -0.11467
C         -4.21987       -2.36686       -0.42798
N         -3.51391       -3.25154       -0.68141
C         -6.49573       -1.43601       -0.00219
F         -7.07296       -2.61783       -0.17614
C         -7.16582       -0.29144        0.28743
H         -8.22985       -0.16526        0.41919
S         -6.06842        1.02380        0.43089
C          3.82916       -0.25764        0.01851
C          3.64798       -1.72559        0.11352
O          2.62924       -2.38003        0.15567
N          4.94362       -2.25249        0.14821
C          5.22938       -3.66797        0.24765
C          5.95113       -1.27913        0.08448
O          7.13577       -1.50977        0.10127
C          5.22024        0.01156       -0.00064
C          5.52482        1.32902       -0.08120
H          6.49501        1.80553       -0.11106
S          4.07984        2.27288       -0.13372
H         -2.17827       -1.05519       -0.11640
H         -3.40047        1.74536        0.20582
H          4.27615       -4.19744        0.25251
H          5.77694       -3.87899        1.16954
H          5.83166       -3.99061       -0.60491
