37
COMP47_420002.log	Energy: -2007094.3589624
C          2.96446        0.97891       -0.05541
C          1.54891        1.30347       -0.09426
C          0.91723        2.52989       -0.09570
Cl         1.67691        4.09066       -0.04718
C         -0.50167        2.46412       -0.13977
O         -1.33205        3.52643       -0.14431
C         -0.96614        1.17215       -0.17653
S          0.34634        0.04114       -0.14503
C         -2.36023        0.78752       -0.23559
C         -2.82434       -0.47551       -0.33063
C         -4.23099       -0.83521       -0.31944
C         -5.26157       -0.21314        0.34801
O         -5.17487        0.86379        1.15486
C         -6.51906       -0.86040        0.13972
Cl        -7.98304       -0.28795        0.85808
C         -6.43352       -1.95694       -0.65987
H         -7.23911       -2.60809       -0.96670
S         -4.81741       -2.23579       -1.17696
C          3.59122       -0.24715       -0.04437
C          3.21398       -1.68534       -0.05532
O          2.14113       -2.23698       -0.08851
N          4.44958       -2.35320        0.00880
O          4.53320       -3.70174       -0.13288
C          4.51663       -4.34370        1.14488
C          5.59077       -1.53480        0.01904
O          6.73330       -1.91213        0.05601
C          5.01038       -0.16961       -0.00117
C          5.49821        1.09207        0.02046
H          6.52660        1.42451        0.05387
S          4.20348        2.22879       -0.01530
H         -0.81348        4.34293       -0.13055
H         -3.05343        1.62634       -0.24661
H         -2.11545       -1.29961       -0.41381
H         -4.24325        1.01006        1.37501
H          4.60462       -5.40770        0.92343
H          3.57240       -4.14507        1.66062
H          5.36829       -4.01613        1.74872
