48
COMP71_100002.log	Energy: -1892411.8208517
C         -0.53306       -1.81538        0.26045
C          0.81756       -1.28625        0.14570
C          1.33379       -0.20714        0.77830
F          0.61656        0.52204        1.63049
C          2.71965        0.07789        0.50204
C          3.53375        1.11677        0.97469
C          3.07169        2.20856        1.90237
C          4.85112        1.09477        0.52454
S          6.06084        2.28262        0.97881
C          7.26027        1.48511        0.00378
H          8.27033        1.86252       -0.06305
C          6.76687        0.39666       -0.61624
F          7.51712       -0.36972       -1.41939
C          5.37293        0.11396       -0.35635
C          4.55594       -0.92024       -0.83468
C          5.01119       -2.00419       -1.77538
C          3.24027       -0.90053       -0.38098
S          2.03001       -2.07772       -0.84821
C         -1.74896       -1.17753        0.14714
C         -1.95841        0.24813       -0.23573
O         -1.04186        1.00445       -0.50416
C         -3.37641        0.65965       -0.27869
C         -3.79369        1.93059       -0.56217
O         -3.01274        2.96642       -0.85221
C         -3.61081        4.23268       -1.06153
S         -5.54937        2.07707       -0.50900
C         -5.69978        0.37236       -0.09638
O         -6.88069       -0.20840        0.08947
C         -8.04902        0.59034        0.03172
C         -4.48141       -0.24084       -0.00977
C         -4.28044       -1.66087        0.31384
O         -5.18280       -2.45472        0.52114
C         -2.85212       -2.06847        0.37016
C         -2.46325       -3.34930        0.62898
H         -3.11387       -4.19246        0.81639
S         -0.75874       -3.50218        0.62737
H          1.99987        2.16740        2.08185
H          3.30944        3.19143        1.47868
H          3.58549        2.13478        2.86866
H          6.06419       -1.91023       -2.03077
H          4.42941       -1.97395       -2.70472
H          4.85517       -2.99182       -1.32462
H         -2.79109        4.91497       -1.28297
H         -4.13838        4.57263       -0.16201
H         -4.30300        4.20591       -1.91231
H         -8.87941       -0.08734        0.22573
H         -8.16905        1.04161       -0.96105
H         -8.02746        1.37448        0.79809
