27
COMP22_110200.log	Energy: -1981684.6272272
C          1.84355       -0.02835        0.06750
C          0.42262       -0.31678        0.29475
C         -0.11480       -1.24142        1.13739
F          0.58709       -2.05367        1.91796
C         -1.53138       -1.26844        1.11558
F         -2.23092       -2.11014        1.87755
C         -2.09166       -0.36298        0.25939
S         -0.83720        0.54738       -0.53230
C         -3.49953       -0.13954        0.00282
S         -4.76151       -1.03446        0.80756
C         -6.00436       -0.18597       -0.03561
H         -7.04777       -0.40332        0.13695
C         -5.47945        0.73055       -0.88612
F         -6.17839        1.54067       -1.67503
C         -4.05869        0.75650       -0.86397
F         -3.35618        1.59113       -1.63064
C          2.36129        1.27714        0.36035
N          1.65570        2.30312        0.83564
S          2.69731        3.54060        0.99304
N          4.06994        2.83796        0.47797
C          3.74792        1.58369        0.15805
C          4.63802        0.59213       -0.33251
H          5.68623        0.82060       -0.47965
C          4.13317       -0.64250       -0.60799
Cl         5.21466       -1.85799       -1.21219
C          2.73409       -0.95720       -0.41986
Cl         2.17977       -2.53931       -0.84971
