44
COMP63_000023.log	Energy: -882517.9879888
C          0.38582        0.26191        0.14323
C          1.26864       -0.90353        0.20807
C          2.30048       -1.00418       -0.74353
C          3.07494       -2.15088       -0.81993
O          4.08242       -2.34796       -1.70934
C          4.38513       -1.29957       -2.59994
C          2.82056       -3.21071        0.06203
H          3.42967       -4.10537       -0.01240
C          1.83110       -3.10013        1.01687
C          1.04948       -1.94314        1.11539
O          0.12086       -1.91489        2.10479
C          0.05575       -0.77240        2.94763
C         -0.96244        0.31325        0.01299
C         -2.12356       -0.56805       -0.08881
O         -2.24613       -1.75930        0.00604
N         -3.20302        0.38894       -0.34610
C         -4.57152        0.14773       -0.53058
O         -5.35676        1.03741       -0.76152
O         -4.86250       -1.13797       -0.41744
C         -6.24275       -1.46098       -0.59969
C         -2.70889        1.69368       -0.42238
H         -3.38970        2.50154       -0.64818
C         -1.38029        1.66959       -0.19860
C         -0.20205        2.53405       -0.18244
O         -0.07221        3.72781       -0.25575
N          0.88044        1.57994        0.01719
C          2.15371        1.95391        0.49896
O          2.72560        1.38417        1.39518
O          2.61511        2.99605       -0.17671
C          3.84098        3.54029        0.31799
H          2.44456       -0.18297       -1.43703
H          5.22771       -1.64563       -3.19954
H          4.67373       -0.38598       -2.06300
H          3.53903       -1.07540       -3.26294
H          1.64424       -3.90120        1.72359
H         -0.02343       -1.13779        3.97490
H         -0.82865       -0.17222        2.71146
H          0.95269       -0.15139        2.84743
H         -6.30618       -2.53652       -0.44364
H         -6.56485       -1.19849       -1.60997
H         -6.85963       -0.92739        0.12655
H          4.04962        4.40076       -0.31544
H          4.64101        2.80014        0.24540
H          3.72655        3.84812        1.35959
