39
COMP25_000230.log	Energy: -1507058.1744191
C          1.92455       -0.35513       -0.24198
C          0.48119       -0.67248       -0.39744
C         -0.46023        0.19279        0.15943
C         -1.80778       -0.11166       -0.00196
N         -2.96858        0.55912        0.45301
C         -3.06292        1.72950        1.18888
O         -4.10500        2.23864        1.53054
O         -1.85642        2.23044        1.47743
C         -1.87443        3.44155        2.23378
C         -4.10012       -0.17340        0.02219
C         -5.45674        0.07329        0.22171
C         -6.35769       -0.83611       -0.32131
H         -7.42042       -0.66670       -0.17732
C         -5.93182       -1.95726       -1.04224
C         -4.57839       -2.19229       -1.23607
C         -3.65901       -1.29328       -0.69965
C         -2.21040       -1.25365       -0.71588
C         -1.26029       -2.10051       -1.28038
C          0.08339       -1.80791       -1.11795
C          2.43527        0.87500       -0.77773
N          1.71597        1.79858       -1.41762
S          2.74922        2.98523       -1.82374
N          4.13630        2.39058       -1.21646
C          3.82527        1.21708       -0.66459
C          4.72899        0.33535       -0.01507
H          5.77867        0.58735        0.06855
C          4.23162       -0.82488        0.49482
Cl         5.33068       -1.90602        1.29566
C          2.83086       -1.17143        0.39040
Cl         2.29451       -2.64959        1.12773
H         -0.13978        1.07134        0.69781
H         -0.82696        3.70263        2.37971
H         -2.36859        3.28529        3.19496
H         -2.39451        4.22863        1.68375
H         -5.79120        0.93741        0.77725
H         -6.66497       -2.64669       -1.44907
H         -4.23797       -3.06040       -1.79283
H         -1.56952       -2.97830       -1.83933
H          0.83718       -2.45692       -1.55145
