29
COMP41_100011.log	Energy: -1387918.0607723
C         -2.22902       -0.59216       -0.00228
C         -0.80272       -0.33197       -0.00191
C          0.19132       -1.26158        0.00082
F         -0.03606       -2.57942        0.00312
C          1.52697       -0.75498        0.00057
C          2.72749       -1.46593        0.00327
H          2.73012       -2.55072        0.00596
C          3.89797       -0.72508        0.00224
S          5.53827       -1.34420        0.00519
C          6.18924        0.27551        0.00157
H          7.25658        0.44327        0.00224
C          5.22020        1.21097       -0.00158
F          5.44080        2.52705       -0.00460
C          3.87813        0.69270       -0.00130
C          2.67740        1.39940       -0.00382
H          2.67407        2.48428       -0.00660
C          1.50385        0.65961       -0.00298
S         -0.12560        1.29804       -0.00545
C         -3.29841        0.26771       -0.00087
C         -3.53764        1.73481        0.00532
O         -2.76115        2.66112        0.00465
N         -4.93229        1.85932        0.00949
H         -5.39224        2.75867        0.00685
C         -5.63519        0.64744        0.00286
O         -6.83500        0.52620        0.00134
C         -4.56188       -0.38024       -0.00288
C         -4.49045       -1.73312       -0.00532
H         -5.29190       -2.45894       -0.00759
S         -2.84190       -2.23994       -0.00373
