38
COMP51_100220.log	Energy: -2298557.0294279
C         -1.28247        0.80421       -0.06395
C          0.15054        0.57712       -0.07968
C          0.76386       -0.63891       -0.09724
F          0.07877       -1.78859       -0.10019
C          2.19529       -0.62433       -0.10429
C          3.11772       -1.67827       -0.12496
O          2.75259       -2.98938       -0.15992
C          2.36904       -3.53242        1.10036
C          4.46469       -1.34146       -0.15747
S          5.77828       -2.49353       -0.22493
C          6.94297       -1.19686       -0.24324
H          8.00282       -1.40159       -0.29151
C          6.36215        0.01907       -0.20988
F          7.04928        1.16447       -0.22016
C          4.92207       -0.00147       -0.15527
C          3.99763        1.04918       -0.11768
O          4.35312        2.36351       -0.14380
C          4.81429        2.87916        1.10210
C          2.65026        0.71291       -0.09985
S          1.34739        1.87429       -0.08783
C         -2.01423        1.97324       -0.04508
Cl        -1.35171        3.56893       -0.03993
N         -3.36406        1.86504       -0.02844
C         -3.71256        0.60911       -0.03401
S         -2.41182       -0.52785       -0.06115
C         -5.09838        0.17225       -0.01871
S         -6.40430        1.31611       -0.00295
C         -7.50533       -0.00517        0.00966
H         -8.57598        0.13461        0.02280
C         -6.80854       -1.17688        0.00082
Cl        -7.54488       -2.74004        0.00952
N         -5.45241       -1.08325       -0.01508
H          2.16857       -4.58967        0.92476
H          1.46357       -3.04832        1.47942
H          3.17913       -3.42713        1.83160
H          5.00173        3.94060        0.93760
H          5.74214        2.38843        1.41070
H          4.05041        2.75602        1.87900
