35
COMP11_400000.log	Energy: -1325263.1757453
C         -2.99896        0.62294       -0.25927
C         -1.57520        0.44705       -0.16984
C         -0.83341       -0.71066       -0.23133
O         -1.28371       -1.95742       -0.39341
C          0.60020       -0.47923       -0.13988
C          1.65088       -1.41082       -0.14778
C          1.49369       -2.90569       -0.24301
C          2.93281       -0.87069       -0.05461
S          4.39016       -1.84354       -0.04803
C          5.37238       -0.41286        0.08984
H          6.45011       -0.50213        0.13756
C          4.65003        0.73074        0.12885
O          5.15734        1.98785        0.23508
C          3.21546        0.51441        0.04632
C          2.16434        1.44408        0.05671
C          2.32947        2.93709        0.16427
C          0.88508        0.90417       -0.03888
S         -0.56455        1.88307       -0.03010
C         -3.73598        1.66387       -0.69140
C         -5.19031        1.47252       -0.58187
C         -5.57900        0.30710       -0.05704
H         -6.56705       -0.09885        0.10484
S         -4.14097       -0.62085        0.39266
O         -4.02568       -1.83988       -0.42869
O         -4.00751       -0.74489        1.83621
H         -2.25820       -2.00748       -0.49812
H          0.45144       -3.21234       -0.24926
H          1.99431       -3.38949        0.60461
H          1.97066       -3.27863       -1.15785
H          6.11935        1.93314        0.27990
H          3.37504        3.23412        0.19464
H          1.83891        3.31012        1.07203
H          1.85311        3.43399       -0.69020
H         -3.30786        2.56289       -1.11893
H         -5.88654        2.22648       -0.93164
