60
COMP91_300022.log	Energy: -1737712.8108936
C          1.06558       -0.07949       -0.24450
C         -0.41474       -0.13708       -0.19860
C         -1.16278       -0.33623        0.92437
C         -0.55709       -0.43387        2.21265
N         -0.01804       -0.53449        3.23449
C         -2.58155       -0.41942        0.64833
C         -3.64819       -0.61118        1.53028
O         -3.46375       -0.71928        2.87403
C         -3.22260       -2.04720        3.33918
C         -4.92800       -0.64149        0.98704
S         -6.40175       -0.84993        1.90303
C         -7.34184       -0.77097        0.45657
H         -8.41867       -0.86361        0.50513
C         -6.60316       -0.58391       -0.67165
C         -7.20182       -0.47576       -1.96387
N         -7.71346       -0.36870       -2.99882
C         -5.18144       -0.49748       -0.39636
C         -4.11247       -0.30742       -1.27844
O         -4.29309       -0.19937       -2.62261
C         -4.52680        1.13100       -3.08715
C         -2.83439       -0.27751       -0.73463
S         -1.36145       -0.07688       -1.65206
C          1.74171       -1.30203       -0.46167
C          3.11219       -1.36387       -0.45843
C          3.77632       -2.67730       -0.68871
O          3.17156       -3.70727       -0.87693
N          5.17471       -2.63928       -0.66050
O          5.81040       -3.80122       -1.00245
C          6.08323       -4.59516        0.15481
C          6.00438       -1.53689       -0.41624
O          7.20808       -1.64770       -0.38288
C          5.29085       -0.24925       -0.19335
C          6.02332        0.88962        0.04733
H          7.10564        0.82253        0.07066
C          5.36831        2.11627        0.25991
C          3.99415        2.18795        0.23139
C          3.34591        3.50425        0.46742
O          3.95656        4.53041        0.65957
N          1.94881        3.47749        0.43385
O          1.32049        4.64806        0.75832
C          1.08997        5.44780       -0.40378
C          1.10534        2.39467        0.15867
O         -0.09046        2.55268        0.07152
C          1.79413        1.08232       -0.03567
C          3.21314        1.03030       -0.01291
C          3.87647       -0.19907       -0.22503
H         -3.05931       -1.96250        4.41313
H         -2.32895       -2.47311        2.87102
H         -4.08633       -2.69242        3.13953
H         -4.68076        1.04864       -4.16266
H         -3.66320        1.77289       -2.87701
H         -5.42365        1.55705       -2.62585
H          1.17410       -2.21224       -0.62545
H          6.57558       -5.48592       -0.23582
H          5.15241       -4.87434        0.65687
H          6.75641       -4.06401        0.83379
H          5.93135        3.02298        0.45294
H          0.60231        6.34563       -0.02361
H          0.42524        4.92895       -1.10042
H          2.03757        5.71326       -0.88125
