60
COMP81_400013.log	Energy: -1669876.0107789
C         -1.21515       -0.16924        0.24065
C         -2.67099       -0.31785        0.24289
C         -3.57382        0.39990       -0.48721
O         -3.33423        1.39467       -1.36975
C         -4.94209       -0.01007       -0.28686
C         -6.08253        0.52339       -0.88465
H         -5.99908        1.34141       -1.59212
C         -7.30490       -0.03284       -0.53815
S         -8.88313        0.44117       -1.13239
C         -9.65335       -0.78455       -0.14819
H        -10.72950       -0.89539       -0.17634
C         -8.77187       -1.50533        0.58320
O         -9.02848       -2.52196        1.44402
C         -7.39896       -1.10115        0.38529
C         -6.25711       -1.63700        0.97923
H         -6.33841       -2.45684        1.68492
C         -5.03514       -1.08242        0.63029
S         -3.45867       -1.55987        1.21966
C         -0.36339       -1.27941        0.33389
C          1.01489       -1.13913        0.28827
C          1.58717        0.12649        0.11768
C          2.96435        0.62580        0.13331
C          2.85049        2.13100        0.06362
O          3.73124        2.94715       -0.03611
N          1.46784        2.42811        0.00726
C          0.89197        3.68451       -0.22706
O         -0.24164        3.82661       -0.62524
O          1.72772        4.67060        0.05934
C          1.22537        5.98219       -0.20615
C          0.72028        1.23229        0.05616
C         -0.65530        1.11344        0.13305
C          4.17193       -0.01203        0.13362
C          4.31241       -1.45653       -0.28111
O          3.45108       -2.20725       -0.66569
N          5.69404       -1.75536       -0.24730
C          6.29538       -2.96957       -0.60478
O          7.48873       -3.10160       -0.74639
O          5.40424       -3.94117       -0.74698
C          5.95060       -5.19937       -1.14623
C          6.42045       -0.61631        0.17909
C          7.78333       -0.51462        0.41170
C          8.26560        0.69104        0.91607
H          9.33060        0.79506        1.09978
C          7.40651        1.75032        1.19376
C          6.04368        1.63868        0.94708
C          5.53322        0.45260        0.41174
H         -2.38142        1.50703       -1.49554
H         -9.97903       -2.68204        1.47495
H         -0.79036       -2.27339        0.42313
H          1.64169       -2.01471        0.35309
H          2.02350        6.65818        0.09598
H          0.31846        6.16970        0.37249
H          1.00649        6.09852       -1.26989
H         -1.27608        1.99859        0.16075
H          5.09592       -5.87040       -1.21601
H          6.66602       -5.55967       -0.40369
H          6.44931       -5.10887       -2.11374
H          8.44312       -1.34414        0.20496
H          7.79967        2.67603        1.60115
H          5.38736        2.46936        1.15336
