56
COMP82_330002.log	Energy: -1616828.2481005
C          0.61931       -0.49432        0.02105
C          2.07751       -0.63653        0.10824
C          2.80887       -1.67116        0.65366
C          2.22640       -2.82133        1.26740
N          1.74489       -3.75761        1.75209
C          4.22411       -1.45382        0.58379
C          5.17598       -2.37536        1.11610
N          5.94746       -3.12821        1.54189
C          4.55206       -0.25572       -0.01432
S          3.12370        0.58768       -0.50620
C          5.87783        0.29263       -0.27148
S          7.17851       -0.71657       -0.80904
C          8.26340        0.60002       -0.88941
H          9.29191        0.45299       -1.18833
C          7.67065        1.77910       -0.52973
C          8.35365        3.03356       -0.50636
N          8.91412        4.04717       -0.49294
C          6.29124        1.60621       -0.17201
C          5.45991        2.68262        0.26162
N          4.78554        3.55917        0.60808
C          0.01055        0.74914        0.22007
C         -1.37509        0.89594        0.17725
C         -2.18384       -0.21651       -0.05230
C         -3.63881       -0.45679       -0.20411
C         -3.76671       -1.93690       -0.54526
O         -4.74062       -2.62920       -0.74827
N         -2.47953       -2.42263       -0.51345
O         -2.15331       -3.69528       -0.86827
C         -2.17187       -4.55580        0.27921
C         -1.53222       -1.44744       -0.27025
C         -0.16676       -1.62095       -0.25355
C         -4.71647        0.36092       -0.04369
C         -4.61080        1.75936        0.56397
O         -3.64533        2.40332        0.92158
N         -5.90277        2.20200        0.66165
O         -6.24742        3.40195        1.20481
C         -6.02820        4.46185        0.26695
C         -6.83298        1.31564        0.13501
C         -8.19476        1.50802        0.02795
C         -8.93037        0.49220       -0.58318
H        -10.00523        0.60344       -0.68832
C         -8.29986       -0.65163       -1.06330
C         -6.92186       -0.82734       -0.93275
C         -6.15782        0.16109       -0.30894
H          0.61812        1.61916        0.45072
H         -1.82012        1.86318        0.34908
H         -1.90156       -5.53852       -0.10794
H         -3.17405       -4.58449        0.71470
H         -1.43335       -4.22947        1.01904
H          0.26250       -2.59319       -0.46174
H         -6.40743        5.35648        0.76194
H         -6.58502        4.27833       -0.65824
H         -4.96057        4.57084        0.05973
H         -8.65691        2.41162        0.40838
H         -8.88488       -1.42807       -1.54500
H         -6.45145       -1.72570       -1.29999
