36
COMP77_220001.log	Energy: -2729188.9825397
C          2.45747        1.00052        1.00706
C          1.10116        1.13184        0.47368
C          0.65575        2.01421       -0.46797
Cl         1.66841        3.18148       -1.22923
C         -0.72937        1.85401       -0.77024
Cl        -1.54983        2.83477       -1.92873
C         -1.33324        0.84816       -0.05605
S         -0.18155        0.09894        1.00558
C         -2.72384        0.44443       -0.13273
C         -3.24675       -0.61657        0.50646
C         -4.62888       -1.06649        0.48339
C         -5.79759       -0.49706        0.03303
Cl        -5.93176        1.06692       -0.68389
C         -6.94444       -1.32750        0.23808
Cl        -8.54501       -0.87152       -0.22181
C         -6.64649       -2.51121        0.83793
H         -7.33175       -3.30436        1.09907
S         -4.96652       -2.63423        1.16238
C          3.47628        0.19205        0.56830
C          3.38715       -0.75219       -0.57946
O          2.37396       -0.91922       -1.23191
C          4.64788       -1.48063       -0.85917
C          4.80308       -2.38723       -1.86845
H          4.05607       -2.69168       -2.58859
S          6.39401       -3.03552       -1.88965
C          6.87124       -2.09367       -0.53472
H          7.87049       -2.15164       -0.12537
C          5.84634       -1.31111       -0.08683
C          5.93456       -0.38314        1.06345
O          6.94415       -0.23565        1.72715
C          4.67793        0.35875        1.33536
C          4.54236        1.28014        2.33380
H          5.30375        1.57957        3.04131
S          2.97108        1.95821        2.35934
H         -3.34269        1.06720       -0.76762
H         -2.58758       -1.24032        1.10970
