26
COMP54_400000.log	Energy: -1451579.6766790
C         -0.32895       -0.39733        0.20972
C          1.10852       -0.21250        0.11798
C          1.82289        0.94400        0.32310
O          1.35173        2.16526        0.65317
C          3.22203        0.73730        0.15816
S          4.62154        1.74611        0.28066
C          5.64587        0.38565       -0.10088
H          6.71768        0.52235       -0.15608
C          4.94948       -0.76940       -0.30747
O          5.42656       -1.99796       -0.61838
C          3.54532       -0.56353       -0.15745
S          2.15055       -1.57648       -0.27704
C         -1.02015       -1.44472        0.76291
H         -0.55293       -2.29177        1.25117
N         -2.38138       -1.37943        0.69190
C         -2.76243       -0.28662        0.09625
S         -1.47041        0.73785       -0.46275
C         -4.15222        0.08789       -0.10953
S         -5.45070       -0.93411        0.43146
C         -6.56071        0.22279       -0.19448
H         -7.62899        0.07713       -0.12124
C         -5.88732        1.26892       -0.75109
H         -6.34902        2.13153       -1.21498
N         -4.52169        1.18870       -0.70157
H          0.41041        2.11092        0.86931
H          6.38835       -1.96197       -0.67954
