40
COMP84_000001.log	Energy: -1193222.2530640
C          1.87213       -0.06275        0.01554
C          3.33937       -0.10210        0.04206
C          4.20386        0.81097       -0.49838
H          3.87712        1.68059       -1.05561
C          5.56064        0.44890       -0.27485
S          7.09947        1.13487       -0.68536
C          7.92369       -0.17786        0.10377
H          9.00508       -0.19404        0.11596
C          7.08054       -1.09575        0.65093
H          7.41269       -1.98015        1.17974
C          5.71982       -0.73194        0.42907
S          4.18371       -1.41870        0.83823
C          1.10966       -1.23629       -0.00428
C         -0.28081       -1.20706       -0.04355
C         -0.95300        0.01599       -0.07543
C         -2.36874        0.43534       -0.05259
C         -2.32050        1.95740        0.01655
O         -3.21922        2.77418        0.03900
N         -0.99052        2.29875       -0.00244
H         -0.69169        3.26048        0.03001
C         -0.16407        1.18548       -0.03277
C          1.21474        1.17608        0.01311
C         -3.53341       -0.27134       -0.11761
C         -3.58348       -1.75306       -0.47303
O         -2.68653       -2.53049       -0.73364
N         -4.91190       -2.09268       -0.50628
H         -5.21265       -3.02773       -0.73101
C         -5.73498       -1.02488       -0.17558
C         -7.11300       -1.03865       -0.05902
C         -7.74046        0.14508        0.32547
H         -8.82150        0.16792        0.42565
C         -6.99272        1.28870        0.58919
C         -5.60419        1.28709        0.46261
C         -4.94707        0.12151        0.06173
H          1.61054       -2.19943       -0.01693
H         -0.83686       -2.13064       -0.07460
H          1.77459        2.10335        0.08261
H         -7.68069       -1.94309       -0.25395
H         -7.49293        2.20185        0.89489
H         -5.03970        2.18507        0.65799
