26
COMP53_000310.log	Energy: -973984.4918028
C          1.56279        0.07540       -0.00237
C          2.93326       -0.45410        0.02015
C          3.95007        0.22928        0.69823
C          5.24283       -0.28002        0.71390
H          6.02287        0.25879        1.24217
C          5.53465       -1.47599        0.06418
H          6.54497       -1.87273        0.08161
C          4.52723       -2.16381       -0.60728
C          3.23473       -1.65668       -0.63201
H          2.45893       -2.18729       -1.17725
C          1.12069        1.38020       -0.09065
C          1.97888        2.52147       -0.20439
N          2.68443        3.43673       -0.28832
N         -0.23660        1.56912       -0.09475
C         -0.84746        0.42564       -0.01297
S          0.18496       -0.96660        0.08629
C         -2.29664        0.29345       -0.00152
S         -3.32782        1.69355       -0.08350
C         -4.68271        0.64735       -0.01804
H         -5.69793        1.01738       -0.03902
C         -4.26725       -0.65505        0.05957
C         -5.15761       -1.77631        0.12698
N         -5.89856       -2.66478        0.18004
N         -2.90952       -0.85113        0.06900
H          3.72978        1.15310        1.22229
H          4.74827       -3.09512       -1.11890
