23
COMP24_200200.log	Energy: -2260903.9513002
C          1.18207       -0.08213       -0.10901
C         -0.28603       -0.07621        0.01051
C         -1.01692        0.32081        1.09119
Cl        -0.33229        0.84088        2.58854
C         -2.41855        0.25772        0.85267
S         -3.84123        0.59899        1.77464
C         -4.84434        0.14411        0.43153
H         -5.92074        0.19143        0.51654
C         -4.12533       -0.24764       -0.65443
Cl        -4.81489       -0.76548       -2.15357
C         -2.72101       -0.18236       -0.41907
S         -1.30141       -0.52716       -1.34078
C          1.86060        1.14671       -0.39156
N          1.27729        2.33132       -0.57031
S          2.47797        3.38939       -0.85320
N          3.76920        2.40498       -0.76387
C          3.28917        1.18795       -0.50348
C          4.05327        0.00100       -0.34357
H          5.13214        0.02958       -0.43399
C          3.39325       -1.16070       -0.07776
Cl         4.32041       -2.61441        0.11681
C          1.95277       -1.20770        0.04520
Cl         1.19054       -2.71771        0.41133
