49
COMP41_400033.log	Energy: -1786616.8968780
C         -1.86876       -1.42141       -0.59547
C         -0.54063       -0.86418       -0.42266
C          0.59296       -1.55184       -0.08232
O          0.68649       -2.85190        0.25782
C          1.77547       -0.72496       -0.04911
C          3.09742       -1.09846        0.22549
C          3.52692       -2.53401        0.28339
O          3.31775       -3.34195       -0.58457
O          4.24045       -2.78216        1.39057
C          4.78693       -4.09952        1.47937
C          4.04947       -0.08572        0.30974
S          5.74065       -0.29032        0.71345
C          6.01836        1.41783        0.50794
H          7.00069        1.82673        0.70615
C          4.90733        2.11118        0.16641
O          4.78948        3.45060        0.03101
C          3.74078        1.26583        0.00941
C          2.43852        1.62087       -0.36061
C          2.10352        2.96866       -0.92408
O          2.69780        3.50108       -1.82577
O          1.00076        3.46778       -0.34767
C          0.51813        4.69175       -0.90531
C          1.45947        0.62648       -0.32371
S         -0.24276        0.85641       -0.63342
C         -3.11572       -0.91554       -0.32874
C         -3.68468        0.31909        0.26005
O         -3.14148        1.32933        0.61846
N         -5.09765        0.09093        0.27091
C         -6.06297        1.03155        0.71294
O         -7.11594        1.20967        0.16501
O         -5.63230        1.64647        1.80762
C         -6.49209        2.68077        2.29135
C         -5.47103       -1.16488       -0.29203
O         -6.58528       -1.60182       -0.38008
C         -4.18031       -1.78730       -0.66670
C         -3.79183       -2.97166       -1.19800
H         -4.39685       -3.80753       -1.52063
S         -2.07034       -3.01056       -1.32642
H         -0.19487       -3.22909        0.38738
H          5.33272       -4.12520        2.42147
H          5.45832       -4.29146        0.63910
H          3.98668       -4.84279        1.47623
H          5.65593        3.86058        0.13750
H         -0.39696        4.91814       -0.36025
H          0.31306        4.56891       -1.97120
H          1.25782        5.48423       -0.77050
H         -5.97590        3.10555        3.15069
H         -7.45742        2.26363        2.58637
H         -6.64557        3.43917        1.52033
