30
COMP64_000000.log	Energy: -1001212.6383550
C         -0.78725        0.70766       -0.00637
C          0.64212        0.49502       -0.00603
C          1.21316       -0.75940       -0.00856
H          0.62112       -1.67118       -0.01234
C          2.62445       -0.68649       -0.00491
S          3.90761       -1.85312       -0.00034
C          5.09151       -0.58208        0.00908
H          6.14296       -0.83634        0.01398
C          4.55322        0.66958        0.00889
H          5.13843        1.58026        0.01356
C          3.13032        0.60420        0.00098
S          1.85899        1.77237        0.00201
C         -1.76101       -0.27094       -0.00968
C         -1.96342       -1.70620       -0.00778
O         -1.20104       -2.66474       -0.01136
N         -3.37850       -1.83866       -0.00172
C         -4.03740       -3.12502        0.01590
C         -3.99728       -0.60784        0.00454
H         -5.07667       -0.53360        0.01480
C         -3.04436        0.35970       -0.00200
C         -2.85047        1.79881        0.00183
O         -3.61787        2.73833        0.00566
N         -1.42616        1.94214       -0.00021
C         -0.84331        3.26613       -0.00316
H         -3.25687       -3.88461       -0.05098
H         -4.71544       -3.22731       -0.83671
H         -4.59711       -3.26767        0.94567
H         -1.68210        3.96486       -0.00620
H         -0.23757        3.43516       -0.89820
H         -0.24008        3.44068        0.89248
