56
COMP87_040000.log	Energy: -1434031.1839419
C         -0.20164        0.43766       -0.22464
C         -1.65776        0.57331       -0.30516
C         -2.37700        1.58052       -0.91099
O         -1.86181        2.64432       -1.57679
C         -3.78388        1.42383       -0.81051
H         -4.48062        2.14260       -1.22402
C         -4.14454        0.28565       -0.13635
S         -2.74199       -0.59797        0.38218
C         -5.46522       -0.23681        0.17199
C         -6.61647        0.24347       -0.32937
C         -7.93777       -0.25480        0.01536
C         -8.31977       -1.09312        1.03332
H         -7.63118       -1.48781        1.77373
C         -9.71836       -1.36439        1.03213
O        -10.35876       -2.15859        1.92924
C        -10.38707       -0.72767        0.02433
H        -11.44572       -0.76826       -0.18448
S         -9.31078        0.20939       -0.93874
C          0.42624       -0.80575       -0.36384
C          1.81018       -0.93939       -0.30432
C          2.61465        0.18566       -0.11737
C          4.05840        0.42393        0.06354
C          4.16829        1.91180        0.35566
O          5.15282        2.59742        0.55615
N          2.89133        2.42524        0.30419
C          2.58365        3.81707        0.51917
C          1.96401        1.42591        0.04903
C          0.59107        1.57897       -0.00158
C          5.14055       -0.40114       -0.02172
C          5.06133       -1.80958       -0.59162
O          4.10653       -2.40933       -1.05105
N          6.33417       -2.32506       -0.56017
C          6.67319       -3.64093       -1.04055
C          7.22833       -1.41573       -0.00656
C          8.57714       -1.62273        0.22139
C          9.29733       -0.59015        0.82246
H         10.35841       -0.72159        1.01217
C          8.66678        0.59587        1.18254
C          7.30647        0.79066        0.94216
C          6.56282       -0.21698        0.32649
H         -0.91820        2.48979       -1.72420
H         -5.49691       -1.08396        0.85445
H         -6.58307        1.05545       -1.05301
H         -9.71331       -2.51672        2.54852
H         -0.17815       -1.68866       -0.54744
H          2.26277       -1.91023       -0.43190
H          3.52656        4.33796        0.68767
H          1.93658        3.94073        1.39425
H          2.08518        4.24203       -0.35858
H          0.13168        2.54220        0.19908
H          5.76386       -4.08859       -1.44266
H          7.05727       -4.26440       -0.22579
H          7.42895       -3.57847       -1.83056
H          9.05561       -2.55771       -0.05083
H          9.23685        1.38917        1.65518
H          6.83346        1.72090        1.21464
