46
COMP26_000130.log	Energy: -1187660.9713099
C         -2.63649       -0.81387       -0.00262
C         -1.20663       -1.13713       -0.20581
C         -0.22804       -0.19187        0.12591
C          1.10017       -0.50543       -0.08304
C          2.32521        0.36013        0.17226
C          2.24017        1.62870       -0.68585
O          2.85611        1.84127       -1.69628
O          1.32903        2.46369       -0.16495
C          1.05980        3.63738       -0.93153
C          2.46642        0.74725        1.64763
O          1.80000        0.32527        2.55563
O          3.47333        1.62162        1.79597
C          3.72486        2.04193        3.13732
C          3.46110       -0.55626       -0.26202
C          4.82384       -0.30994       -0.26367
C          5.68010       -1.31477       -0.71328
H          6.75182       -1.14134       -0.72372
C          5.17428       -2.53778       -1.15417
C          3.80289       -2.78047       -1.15793
C          2.94826       -1.78043       -0.70916
C          1.48449       -1.74391       -0.60753
C          0.51917       -2.68782       -0.93568
C         -0.82071       -2.37683       -0.73378
C         -3.19248        0.46213       -0.37631
N         -2.52442        1.46339       -0.94603
S         -3.59481        2.66693       -1.17952
N         -4.94167        1.97815       -0.57709
C         -4.58965        0.76190       -0.16610
C         -5.46401       -0.19772        0.42059
H         -6.51317        0.01256        0.58372
C         -4.91287       -1.38744        0.75917
F         -5.64289       -2.35183        1.31604
C         -3.52472       -1.68936        0.55293
F         -3.14255       -2.90155        0.95891
H         -0.50668        0.77032        0.53697
H          0.36612        4.22557       -0.33206
H          0.60421        3.36521       -1.88650
H          1.98152        4.19382       -1.11447
H          4.53434        2.76775        3.07016
H          4.02206        1.19020        3.75376
H          2.83096        2.50046        3.56601
H          5.21298        0.64424        0.07437
H          5.85747       -3.30735       -1.50079
H          3.41137       -3.73163       -1.50703
H          0.79760       -3.65217       -1.34986
H         -1.58080       -3.10383       -0.99796
