32
COMP42_130000.log	Energy: -1480472.2531608
C          2.05807        0.99155        0.07883
C          0.60841        1.01641        0.02385
C         -0.20180        2.11735        0.11755
F          0.26210        3.35371        0.27025
C         -1.59363        1.85398        0.05628
C         -2.58215        2.87473        0.16933
N         -3.37826        3.71221        0.25800
C         -1.83888        0.50100       -0.08273
S         -0.37521       -0.40906       -0.15779
C         -3.12950       -0.16286       -0.20066
S         -4.36382        0.46131       -1.23607
C         -5.44689       -0.81415       -0.84444
H         -6.43854       -0.86618       -1.26876
C         -4.87669       -1.67668        0.03563
F         -5.47485       -2.75395        0.52442
C         -3.54753       -1.32581        0.41849
C         -2.79435       -2.07639        1.36820
N         -2.19652       -2.69420        2.14531
C          2.93289       -0.05177       -0.06685
C          2.86856       -1.50679       -0.34405
O          1.90473       -2.21645       -0.53186
N          4.19921       -1.93582       -0.35535
C          4.59479       -3.30873       -0.58860
C          5.12606       -0.90931       -0.12057
O          6.32358       -1.05456       -0.08929
C          4.29610        0.30968        0.06401
C          4.49437        1.62724        0.31015
H          5.42328        2.16343        0.44793
S          2.98047        2.45392        0.38614
H          3.68524       -3.89512       -0.72225
H          5.16035       -3.68694        0.26615
H          5.21680       -3.37560       -1.48457
