39
COMP49_000020.log	Energy: -1407837.3914620
C         -1.95102       -1.09817        0.13989
C         -0.53071       -0.83080        0.09358
C          0.08120        0.40261        0.18090
C          1.47967        0.30294        0.05973
C          1.92223       -0.98839       -0.08807
S          0.64060       -2.12104       -0.11583
C          3.37194       -1.00011       -0.14594
C          3.83887        0.28535       -0.04428
C          2.67082        1.26442        0.11245
O          2.75768        2.17002       -0.94863
C          1.64739        3.04128       -1.08916
O          2.59744        1.91090        1.35364
C          3.72104        2.70256        1.68844
C          5.24691        0.37220       -0.17920
C          5.81073       -0.86182       -0.35495
H          6.85830       -1.10263       -0.47230
S          4.63402       -2.13640       -0.38227
C         -3.01291       -0.23193        0.05246
C         -3.24017        1.21784       -0.14337
O         -2.45460        2.13706       -0.24768
N         -4.63489        1.36675       -0.18228
C         -5.29771        2.63996       -0.35819
C         -5.33690        0.16586       -0.02213
O         -6.54101        0.06454       -0.01936
C         -4.28146       -0.86622        0.12970
C         -4.22743       -2.21034        0.28069
H         -5.03386       -2.92622        0.35503
S         -2.57538       -2.72451        0.34236
H         -0.48177        1.31835        0.31324
H          1.95036        3.80493       -1.80721
H          1.38908        3.51605       -0.13647
H          0.77058        2.51027       -1.47843
H          3.99902        3.37347        0.86768
H          4.58178        2.07606        1.95539
H          3.42961        3.29467        2.55779
H          5.81837        1.29178       -0.15860
H         -4.52628        3.40878       -0.41007
H         -5.96610        2.83636        0.48377
H         -5.88376        2.63865       -1.28096
