24
COMP53_000210.log	Energy: -1435045.8880823
C          1.64586        0.05161       -0.01988
C          3.01003       -0.50084        0.01199
C          3.97472        0.04009        0.86914
C          5.25581       -0.49694        0.90957
H          5.99494       -0.07071        1.58081
C          5.58716       -1.58296        0.10380
H          6.58722       -2.00398        0.14093
C          4.63120       -2.12995       -0.74751
C          3.35028       -1.59238       -0.79514
H          2.61234       -2.01085       -1.47408
C          1.20632        1.34946       -0.09906
Cl         2.24076        2.73015       -0.23464
N         -0.13593        1.55624       -0.10417
C         -0.76248        0.41558       -0.02756
S          0.25381       -0.98233        0.05983
C         -2.21205        0.30431       -0.00827
S         -3.22432        1.71278       -0.07453
C         -4.59729        0.67872       -0.00193
H         -5.60820        1.05823       -0.01174
C         -4.18397       -0.61835        0.06560
Cl        -5.25528       -1.97204        0.15203
N         -2.84159       -0.83583        0.06240
H          3.71404        0.87372        1.51279
H          4.88360       -2.97448       -1.38123
