51
COMP89_000010.log	Energy: -1315011.8977642
C         -1.27792        0.21995        0.08299
C         -2.74268        0.25895        0.13663
C         -3.54708        1.29862        0.54035
C         -4.92380        0.98104        0.46231
C         -5.14863       -0.29549       -0.00234
S         -3.69192       -1.13018       -0.35510
C         -6.57332       -0.53757       -0.04645
C         -7.23323        0.58737        0.39421
C         -6.23844        1.66413        0.76443
H         -6.31896        1.94929        1.82049
H         -6.37620        2.57605        0.17118
C         -8.64484        0.43172        0.38662
C         -9.01418       -0.80633       -0.05973
H        -10.01434       -1.20185       -0.17150
S         -7.65379       -1.80207       -0.47783
C         -0.56985       -0.97142        0.27677
C          0.82026       -1.01797        0.22292
C          1.54844        0.14611       -0.02415
C          2.97904        0.49822       -0.09346
C          2.99255        2.00162       -0.32897
O          3.93206        2.75822       -0.48986
N          1.68065        2.40946       -0.38960
C          1.28236        3.77282       -0.63266
C          0.81626        1.34088       -0.19250
C         -0.56197        1.40330       -0.15845
C          4.11546       -0.25202       -0.01437
C          4.10606       -1.77289       -0.04806
O          3.16993       -2.54489       -0.14824
N          5.41664       -2.18237        0.00547
C          5.81967       -3.56570       -0.01994
C          6.27661       -1.09528        0.10415
C          7.65376       -1.14556        0.22929
C          8.33662        0.06434        0.35284
H          9.41802        0.05849        0.45262
C          7.64339        1.26968        0.35687
C          6.25478        1.30330        0.22440
C          5.54430        0.11066        0.08260
H         -3.14710        2.23700        0.90803
H         -9.35790        1.18776        0.69379
H         -1.11155       -1.88711        0.49383
H          1.33220       -1.95630        0.36560
H          2.19180        4.36199       -0.75424
H          0.70399        4.16337        0.21171
H          0.67871        3.84141       -1.54399
H         -1.08213        2.33845       -0.33715
H          4.91589       -4.16890       -0.11158
H          6.34470       -3.83266        0.90378
H          6.47655       -3.76021       -0.87441
H          8.18179       -2.09347        0.23795
H          8.18444        2.20466        0.46066
H          5.73273        2.24682        0.21593
