25
COMP12_100000.log	Energy: -1258232.7182262
C         -2.35571        0.67235       -0.00107
C         -1.03803        0.09262       -0.00063
C         -0.65681       -1.22611       -0.00140
F         -1.51611       -2.23551       -0.00240
C          0.73838       -1.45286       -0.00120
H          1.17274       -2.44486       -0.00187
C          1.44799       -0.28178       -0.00022
S          0.38852        1.09643        0.00062
C          2.88926       -0.10210        0.00003
S          3.95558       -1.47680        0.00007
C          5.35484       -0.47246        0.00099
H          6.35072       -0.88956        0.00159
C          4.99605        0.83927        0.00030
F          5.87258        1.84420        0.00031
C          3.59702        1.07138       -0.00030
H          3.15844        2.06190       -0.00078
C         -2.72151        1.96574       -0.00235
C         -4.17482        2.19803       -0.00142
C         -4.91690        1.09112        0.00067
H         -5.99108        0.97039        0.00143
S         -3.86689       -0.34596        0.00125
O         -3.99446       -1.05852       -1.26148
O         -3.99148       -1.05612        1.26564
H         -2.01786        2.79103       -0.00386
H         -4.58769        3.20028       -0.00253
