52
COMP82_230000.log	Energy: -1983605.3330405
C         -0.23156       -0.56077        0.15137
C         -1.69122       -0.72809        0.23007
C         -2.43749       -1.72180        0.80593
Cl        -1.78434       -3.07139        1.66327
C         -3.84902       -1.52101        0.69474
C         -4.81096       -2.41522        1.25328
N         -5.59123       -3.14624        1.70098
C         -4.16617       -0.35636        0.02369
S         -2.73221        0.46278       -0.47513
C         -5.48677        0.16803       -0.29865
S         -6.75437       -0.87186       -0.84429
C         -7.85505        0.43422       -1.01200
H         -8.87070        0.26754       -1.34095
C         -7.27945        1.61871       -0.67356
Cl        -8.09799        3.13596       -0.71725
C         -5.91516        1.48227       -0.26137
C         -5.11156        2.58103        0.16609
N         -4.46068        3.47687        0.50876
C          0.35031        0.68249        0.41168
C          1.72981        0.86667        0.34123
C          2.55677       -0.20481        0.01084
C          4.00593       -0.38015       -0.21198
C          4.15235       -1.81827       -0.68082
O          5.15159       -2.44227       -0.98302
N          2.89301       -2.37508       -0.66012
C          2.62163       -3.74831       -1.00724
C          1.94121       -1.44108       -0.28040
C          0.57708       -1.64486       -0.21616
C          5.06651        0.45346       -0.01902
C          4.95759        1.77156        0.73877
O          3.98356        2.29837        1.24333
N          6.22596        2.29019        0.82001
C          6.53853        3.53166        1.48294
C          7.13955        1.48248        0.15212
C          8.48877        1.73462       -0.01947
C          9.22853        0.81599       -0.76428
H         10.29028        0.98539       -0.91610
C          8.61693       -0.30359       -1.31837
C          7.25647       -0.54738       -1.13023
C          6.49405        0.34259       -0.37217
H         -0.27578        1.51978        0.70498
H          2.15632        1.83110        0.56670
H          3.57698       -4.22646       -1.22500
H          1.97595       -3.80533       -1.89038
H          2.13617       -4.26456       -0.17256
H          0.14075       -2.60706       -0.45837
H          5.61496        3.91495        1.91759
H          6.93568        4.26178        0.76927
H          7.27503        3.36807        2.27653
H          8.95270        2.61936        0.40381
H          9.20283       -1.00393       -1.90457
H          6.79760       -1.42641       -1.55460
