31
COMP22_340100.log	Energy: -1490505.8819172
C          2.09944        0.50327       -0.20024
C          0.74698       -0.05153       -0.30160
C          0.39540       -1.32735       -0.68713
C          1.27321       -2.34426       -1.16031
N          1.89376       -3.22952       -1.58181
C         -1.01352       -1.55302       -0.63470
O         -1.62092       -2.71022       -0.97339
C         -1.72500       -0.45893       -0.20637
S         -0.64359        0.86425        0.13075
C         -3.16035       -0.35434       -0.04495
S         -4.24978       -1.67288       -0.39892
C         -5.62026       -0.75377        0.03518
H         -6.61311       -1.17671       -0.02231
C         -5.28229        0.51199        0.43734
C         -6.18298        1.52968        0.86473
N         -6.84171        2.41469        1.22446
C         -3.86876        0.73865        0.39069
O         -3.25993        1.89385        0.73353
C          3.14827       -0.20471        0.48413
N          3.01466       -1.37322        1.10386
S          4.47717       -1.74398        1.71040
N          5.32811       -0.44327        1.23026
C          4.48044        0.33675        0.56210
C          4.79070        1.59750       -0.02456
H          5.78620        2.01952        0.03032
C          3.77768        2.24777       -0.64701
F          3.96605        3.43170       -1.22402
C          2.45085        1.71015       -0.73627
F          1.56612        2.45663       -1.39187
H         -0.96305       -3.36593       -1.24590
H         -3.91615        2.55304        1.00062
