40
COMP49_000031.log	Energy: -1525388.7195067
C          2.70979        0.86397       -0.12430
C          1.26284        0.83996       -0.10797
C          0.44808       -0.27227       -0.11811
C         -0.91318        0.08856       -0.10066
C         -1.12928        1.44645       -0.07718
S          0.33382        2.33307       -0.07490
C         -2.55057        1.70293       -0.06810
C         -3.22331        0.50421       -0.07519
C         -2.23847       -0.65296       -0.08053
C         -2.42021       -1.57343       -1.29036
O         -1.57767       -1.81966       -2.11160
O         -3.66326       -2.06796       -1.30255
C         -3.93738       -2.99846       -2.35179
C         -2.28781       -1.52840        1.18104
O         -2.02489       -2.70497        1.18207
O         -2.59415       -0.81689        2.26442
C         -2.55641       -1.53901        3.49758
C         -4.63274        0.65571       -0.06083
C         -4.98817        1.97482       -0.04209
H         -5.98508        2.39349       -0.03367
S         -3.61964        3.04443       -0.04138
C          3.61391       -0.16629       -0.03680
C          3.59515       -1.64194        0.11131
O          2.67605       -2.42539        0.19135
N          4.94930       -2.00393        0.14453
H          5.24611       -2.96544        0.23137
C          5.85153       -0.93992        0.02942
O          7.05462       -1.02912        0.03023
C          4.97165        0.25329       -0.08473
C          5.14070        1.59074       -0.20909
H          6.05569        2.16347       -0.26544
S          3.59728        2.36912       -0.27875
H          0.83502       -1.28475       -0.13933
H         -4.96916       -3.31333       -2.20120
H         -3.25966       -3.85219       -2.28411
H         -3.81886       -2.51907       -3.32621
H         -2.79189       -0.80714        4.26878
H         -1.56386       -1.96583        3.65853
H         -3.29632       -2.34256        3.49014
H         -5.34284       -0.16093       -0.07113
