58
COMP87_400002.log	Energy: -1528314.8997310
C         -0.47128        0.37815       -0.25397
C         -1.92825        0.45985       -0.39438
C         -2.65006        1.35737       -1.13746
H         -2.19107        2.12265       -1.75577
C         -4.05299        1.15019       -1.05599
O         -4.98029        1.89926       -1.70863
C         -4.41393        0.09298       -0.24845
S         -2.98509       -0.64570        0.41807
C         -5.72269       -0.42571        0.09958
C         -6.90487        0.01900       -0.38065
C         -8.19431       -0.48851        0.05986
C         -8.56422       -0.91574        1.31623
O         -7.77395       -0.93190        2.41861
C         -9.92650       -1.32653        1.40622
H        -10.37361       -1.69003        2.32290
C        -10.57982       -1.19579        0.21996
H        -11.61203       -1.43537        0.00560
S         -9.56175       -0.56814       -1.01989
C          0.16965       -0.84065       -0.00420
C          1.55376       -0.93418        0.11863
C          2.34202        0.20845       -0.02053
C          3.78347        0.51545        0.09144
C          3.87498        2.03393        0.00656
O          4.81297        2.79046        0.14940
N          2.59869        2.45103       -0.29441
O          2.24448        3.76363       -0.38946
C          2.12960        4.35339        0.91114
C          1.66615        1.42443       -0.24647
C          0.30065        1.54523       -0.36974
C          4.88233       -0.28735        0.16121
C          4.81233       -1.79576       -0.04305
O          3.86735       -2.55200       -0.11810
N          6.12174       -2.19703       -0.20277
O          6.47251       -3.51748       -0.12637
C          6.41859       -4.11625       -1.42199
C          7.02658       -1.19339        0.12730
C          8.39468       -1.31925        0.25731
C          9.10566       -0.17287        0.61103
H         10.18370       -0.23025        0.72763
C          8.44640        1.03421        0.82589
C          7.06179        1.13635        0.69112
C          6.32134        0.00978        0.32676
H         -4.53443        2.59860       -2.19997
H         -5.72141       -1.27501        0.78222
H         -6.90880        0.80621       -1.12869
H         -6.98376       -0.40415        2.23095
H         -0.41967       -1.74902        0.07503
H          2.01550       -1.89053        0.30691
H          1.77437        5.36824        0.72874
H          3.10454        4.37934        1.40430
H          1.40263        3.80408        1.51937
H         -0.15271        2.51786       -0.52322
H          6.74180       -5.14666       -1.26757
H          7.09864       -3.60612       -2.11254
H          5.39638       -4.09818       -1.80909
H          8.87792       -2.27755        0.10677
H          9.01339        1.91531        1.10831
H          6.56404        2.07754        0.86389
