68
COMP91_300033.log	Energy: -2022204.3649632
C         -1.06155       -0.19658        0.17222
C          0.40392       -0.36289        0.10732
C          1.24188        0.31421       -0.73073
C          0.70328        1.22613       -1.68883
N          0.17408        1.90938       -2.46250
C          2.62618       -0.08962       -0.59279
C          3.77970        0.43542       -1.19293
C          3.81269        1.73433       -1.93207
O          4.58307        1.97529       -2.83413
O          2.95123        2.59865       -1.41132
C          2.80783        3.85787       -2.08026
C          4.97931       -0.24867       -1.00793
S          6.50397        0.15613       -1.76408
C          7.27300       -1.15363       -0.95279
H          8.31639       -1.36810       -1.14426
C          6.45479       -1.87689       -0.14060
C          6.92005       -3.08382        0.46704
N          7.33776       -4.08325        0.87961
C          5.09820       -1.35547       -0.12945
C          3.97466       -1.77840        0.59513
C          4.11709       -2.73809        1.73271
O          5.04736       -2.73413        2.49857
O          3.06621       -3.56102        1.82484
C          3.09721       -4.47316        2.92923
C          2.74843       -1.17675        0.30872
S          1.20794       -1.58214        1.03758
C         -1.87084       -1.31862       -0.12193
C         -3.23558       -1.20335       -0.20892
C         -4.04759       -2.40932       -0.51842
O         -3.57735       -3.51721       -0.65677
N         -5.42128       -2.19330       -0.64596
C         -6.22626       -3.35251       -0.99769
O         -6.48766       -3.64598       -2.12591
O         -6.58867       -3.98069        0.10533
C         -7.37400       -5.16079       -0.10688
C         -6.10558       -0.98300       -0.49074
O         -7.31130       -0.93875       -0.59643
C         -5.25993        0.20200       -0.19167
C         -5.84772        1.43921       -0.06682
H         -6.92158        1.52760       -0.19049
C         -5.05522        2.57144        0.19982
C         -3.69473        2.44701        0.36344
C         -2.88701        3.66763        0.61190
O         -3.34487        4.78877        0.63062
N         -1.52759        3.44396        0.83774
C         -0.70939        4.60270        1.15048
O          0.03995        5.10165        0.36256
O         -0.93109        4.97677        2.39553
C         -0.20688        6.14055        2.81348
C         -0.87839        2.20759        0.90663
O          0.23663        2.14022        1.37206
C         -1.66153        1.03415        0.41326
C         -3.06386        1.18087        0.25723
C         -3.85946        0.05341       -0.04566
H          2.04027        4.38940       -1.52068
H          2.48642        3.69505       -3.11076
H          3.75774        4.39607       -2.06613
H          2.16690       -5.03526        2.86577
H          3.15801       -3.92612        3.87238
H          3.95965       -5.13666        2.83949
H         -1.41456       -2.28648       -0.30495
H         -7.55964       -5.56663        0.88588
H         -6.81758       -5.87281       -0.71970
H         -8.31161       -4.90173       -0.60280
H         -5.50118        3.55741        0.27310
H         -0.47763        6.29048        3.85689
H         -0.50367        7.00010        2.20870
H          0.86650        5.96999        2.71061
