38
COMP31_300020.log	Energy: -1394364.1951222
C         -2.90483       -0.27613        0.05710
C         -1.43451       -0.20312        0.03072
C         -0.68163        0.88925       -0.30006
C         -1.27389        2.11836       -0.71993
N         -1.78592        3.10576       -1.04666
C          0.74157        0.64724       -0.19669
C          1.81127        1.51447       -0.44273
O          1.62443        2.79364       -0.86482
C          1.44883        3.74757        0.18420
C          3.09473        1.00579       -0.28075
S          4.56980        1.90511       -0.54676
C          5.51631        0.53063       -0.10314
H          6.59643        0.59369       -0.10660
C          4.77889       -0.56654        0.22208
C          5.38191       -1.80415        0.60233
N          5.89518       -2.80408        0.88684
C          3.35208       -0.32496        0.12302
C          2.28263       -1.19108        0.36981
O          2.46957       -2.46933        0.79571
C          2.62225       -3.42970       -0.25079
C          0.99907       -0.68184        0.20943
S         -0.47047       -1.57904        0.48430
C         -3.60075       -1.19971       -0.72456
F         -2.93257       -2.03568       -1.51865
C         -4.98748       -1.25723       -0.69873
F         -5.61221       -2.14950       -1.46562
C         -5.71644       -0.39949        0.10819
H         -6.79851       -0.44565        0.12650
C         -5.03632        0.51873        0.89017
F         -5.70866        1.35139        1.68211
C         -3.64878        0.58041        0.87134
F         -3.03216        1.46371        1.65135
H          1.26563        4.70283       -0.30662
H          2.35036        3.81001        0.80496
H          0.58723        3.49127        0.80937
H          2.81123       -4.38284        0.24199
H          3.47327       -3.17958       -0.89264
H          1.70942       -3.49341       -0.85470
