24
COMP63_000011.log	Energy: -452942.6725811
C         -0.00396       -0.50936       -0.01323
C          1.43845       -0.27767       -0.00444
C          2.35349       -1.33630        0.08212
C          3.71928       -1.08922        0.08277
H          4.41649       -1.91839        0.15126
C          4.19185        0.21818       -0.00190
H          5.26058        0.41005       -0.00208
C          3.29020        1.27605       -0.08188
C          1.92230        1.03704       -0.08281
H          1.22233        1.86684       -0.13697
C         -1.05184        0.37887       -0.00660
C         -1.38065        1.80086        0.02460
O         -0.71245        2.82078        0.02580
N         -2.79636        1.79036        0.04747
H         -3.33052        2.64486        0.06213
C         -3.31657        0.51228        0.02707
H         -4.38478        0.34513        0.04202
C         -2.28389       -0.36473       -0.00771
C         -1.96707       -1.79224       -0.02739
O         -2.64560       -2.79557       -0.04782
N         -0.54986       -1.78451       -0.02199
H         -0.03224       -2.64655       -0.08057
H          2.01346       -2.36444        0.16272
H          3.65303        2.29723       -0.14424
