48
COMP77_440002.log	Energy: -1908055.5144441
C         -0.83228       -1.09069       -0.56091
C          0.38359       -0.29962       -0.55331
C          0.66580        0.90378       -1.15569
O         -0.14925        1.72673       -1.83315
C          2.04350        1.26952       -1.06341
O          2.49522        2.42107       -1.60142
C          2.82237        0.36070       -0.40070
S          1.84726       -0.98114        0.14071
C          4.23772        0.49603       -0.13981
C          5.00886       -0.37774        0.53884
C          6.44417       -0.23821        0.70925
C          7.34722        0.32939       -0.15065
O          7.11662        0.89178       -1.36911
C          8.70115        0.27043        0.30559
O          9.72927        0.77371       -0.41653
C          8.81661       -0.34692        1.51203
H          9.72225       -0.51950        2.07411
S          7.27839       -0.87387        2.10426
C         -2.17799       -0.77578       -0.40858
C         -2.75525        0.55042       -0.13579
O         -2.10087        1.59822       -0.15400
C         -4.18817        0.56479        0.17244
C         -4.88986        1.69355        0.50921
O         -4.39134        2.91527        0.64308
C         -5.26192        3.97492        1.00481
S         -6.59797        1.35370        0.76641
C         -6.33837       -0.34964        0.39500
O         -7.32523       -1.23681        0.41508
C         -8.64205       -0.79115        0.69144
C         -5.02998       -0.61296        0.10644
C         -4.49158       -1.93472       -0.23951
O         -5.16204       -2.94914       -0.32787
C         -3.02075       -1.94479       -0.45171
C         -2.33084       -3.10036       -0.64318
H         -2.75060       -4.09541       -0.69689
S         -0.64926       -2.81281       -0.78031
H         -0.99226        1.77715       -1.31107
H          1.71669        2.87339       -1.96496
H          4.66849        1.42314       -0.51428
H          4.55162       -1.26112        0.98425
H          6.24884        0.60655       -1.69029
H          9.36041        1.11244       -1.24469
H         -4.63627        4.86469        1.05981
H         -5.72179        3.78853        1.98265
H         -6.03938        4.11953        0.24514
H         -9.26897       -1.68089        0.65132
H         -8.97916       -0.07036       -0.06306
H         -8.70523       -0.34463        1.69131
