36
COMP64_100003.log	Energy: -1362280.6803111
C          0.20941        0.70927        0.12104
C         -0.99385       -0.08806        0.06524
C         -2.18084        0.22924       -0.54663
F         -2.40054        1.36380       -1.20500
C         -3.15797       -0.78292       -0.44477
S         -4.79173       -0.98980       -0.98027
C         -4.84101       -2.57139       -0.25511
H         -5.73465       -3.17596       -0.31010
C         -3.67172       -2.90155        0.35085
F         -3.44518       -4.05198        0.97893
C         -2.68637       -1.87925        0.25101
S         -1.05169       -1.69737        0.76507
C          1.51089        0.30471        0.11643
C          2.33020       -0.90284        0.04430
O          2.04945       -2.07327        0.10471
N          3.67225       -0.35379       -0.09929
C          4.89773       -1.02876       -0.20856
O          5.94528       -0.43935       -0.33171
O          4.74191       -2.34118       -0.16059
C          5.95204       -3.09484       -0.26974
C          3.64243        1.04346       -0.11993
H          4.56540        1.58834       -0.25334
C          2.36662        1.45077        0.02449
C          1.54528        2.65811        0.01218
O          1.83007        3.82589        0.01233
N          0.19249        2.12024        0.06407
C         -0.91248        2.89963        0.48928
O         -1.71654        2.52703        1.30525
O         -0.91258        4.06654       -0.13158
C         -1.92613        4.97711        0.30162
H          5.64682       -4.13617       -0.18254
H          6.64305       -2.82567        0.53187
H          6.42880       -2.91173       -1.23522
H         -1.75505        5.88888       -0.26788
H         -1.83158        5.16822        1.37269
H         -2.91577        4.56580        0.09122
