41
COMP11_400030.log	Energy: -1561823.8050620
C          3.24462       -0.86004       -0.24799
C          1.83568       -0.58193       -0.16291
C          1.19463        0.62943       -0.06810
O          1.71591        1.85356        0.00800
C         -0.24793        0.49343       -0.03044
C         -1.20406        1.51101        0.04074
C         -0.87072        2.97080       -0.05424
O         -1.14877        3.78267        0.79542
O         -0.31141        3.25985       -1.22837
C          0.11748        4.61324       -1.37767
C         -2.53600        1.13804        0.18770
S         -3.88239        2.23123        0.40402
C         -4.98620        0.88511        0.44671
H         -6.03936        1.06483        0.62044
C         -4.38314       -0.32102        0.31728
O         -4.96498       -1.53840        0.40494
C         -2.95069       -0.21540        0.13356
C         -1.99981       -1.22997       -0.04928
C         -2.39092       -2.64009       -0.36575
O         -3.17927       -2.95682       -1.21915
O         -1.69009       -3.51573        0.37222
C         -1.92612       -4.89130        0.06796
C         -0.65555       -0.86045       -0.06558
S          0.71295       -1.94344       -0.17573
C          3.91038       -1.88336       -0.81348
C          5.37357       -1.81919       -0.66393
C          5.83519       -0.76658        0.01620
H          6.84729       -0.46747        0.24782
S          4.45947        0.19705        0.57719
O          4.44223        1.52148       -0.06999
O          4.31268        0.13136        2.02264
H          2.69359        1.86194       -0.07683
H          0.55093        4.67424       -2.37501
H          0.86627        4.85309       -0.61911
H         -0.72781        5.29859       -1.28148
H         -5.91753       -1.43009        0.50989
H         -1.26757       -5.45435        0.72786
H         -1.69321       -5.09703       -0.97950
H         -2.97160       -5.14447        0.25801
H          3.42663       -2.67920       -1.36773
H          6.01912       -2.57176       -1.10250
