32
COMP52_430100.log	Energy: -1740365.5508360
C         -1.15338        0.15478        0.49322
C          0.25633        0.45813        0.30684
C          0.80568        1.68370        0.02366
O          0.15984        2.85306       -0.12082
C          2.22607        1.63764       -0.12645
C          2.99400        2.79513       -0.44880
N          3.60897        3.74306       -0.70793
C          2.73894        0.36560        0.05081
S          1.48654       -0.76545        0.39856
C          4.13457       -0.05099        0.01444
S          5.37382        0.91750        0.72298
C          6.59813       -0.21917        0.30671
H          7.63255       -0.02291        0.55279
C          6.08266       -1.30144       -0.34584
O          6.73556       -2.37837       -0.82580
C          4.66313       -1.21353       -0.51543
C          3.91464       -2.21716       -1.19824
N          3.31348       -3.03941       -1.75194
C         -1.77523       -0.38199        1.58948
F         -1.13332       -0.70884        2.69672
N         -3.10637       -0.58514        1.53487
C         -3.55832       -0.20183        0.37012
S         -2.36959        0.40620       -0.73324
C         -4.96159       -0.26464       -0.00115
S         -6.16037       -0.87695        1.08973
C         -7.35209       -0.57918       -0.11389
H         -8.39955       -0.79351        0.03325
C         -6.74582       -0.05147       -1.21470
F         -7.38367        0.29202       -2.32066
N         -5.40778        0.12942       -1.16411
H         -0.77611        2.73998        0.09553
H          7.68190       -2.28732       -0.66235
