46
COMP72_030003.log	Energy: -1928690.0616326
C         -0.48983       -1.43838        0.46571
C         -1.74249       -0.68991        0.48772
C         -2.07266        0.43901        1.18682
H         -1.38191        0.96842        1.82522
C         -3.42204        0.83708        0.97830
C         -3.99008        1.97659        1.62804
N         -4.43045        2.90746        2.16069
C         -4.12087        0.00480        0.12083
S         -3.09597       -1.26182       -0.44514
C         -5.49890        0.11788       -0.33710
S         -6.19186        1.65193       -0.73378
C         -7.69338        0.93831       -1.16800
H         -8.51267        1.56195       -1.49774
C         -7.67945       -0.41462       -1.02579
H         -8.52023       -1.06292       -1.23649
C         -6.42116       -0.89231       -0.55044
C         -6.17064       -2.27604       -0.29723
N         -5.98920       -3.40467       -0.10267
C          0.82568       -1.01376        0.45700
C          1.32421        0.37849        0.52721
O          0.65464        1.32575        0.89895
C          2.75591        0.54206        0.15017
C          3.36354        1.75667       -0.05193
C          2.76976        3.12788       -0.04695
O          3.21200        4.03601        0.61332
O          1.75252        3.21576       -0.89837
C          1.03940        4.45504       -0.86995
S          5.04972        1.58373       -0.31295
C          4.95422       -0.13497       -0.22230
C          6.16918       -0.94021       -0.53817
O          6.17610       -1.96948       -1.15946
O          7.26447       -0.31133       -0.08685
C          8.50529       -0.95212       -0.39450
C          3.67379       -0.55288        0.05146
C          3.22709       -1.95073        0.30603
O          3.98269       -2.88628        0.46368
C          1.75091       -2.10838        0.36598
C          1.14011       -3.32567        0.32841
H          1.62518       -4.29033        0.26829
S         -0.56242       -3.17602        0.38430
H          0.26964        4.36392       -1.63459
H          1.70986        5.28805       -1.09203
H          0.58710        4.60023        0.11362
H          9.27709       -0.29908        0.01003
H          8.62029       -1.06437       -1.47504
H          8.54704       -1.93695        0.07571
