34
COMP47_210000.log	Energy: -1990085.8376652
C          3.15556        0.80865       -0.00301
C          1.71761        0.97549       -0.01310
C          1.02337        2.15755       -0.01012
F          1.61587        3.34917       -0.00130
C         -0.38519        2.03258       -0.01980
Cl        -1.38227        3.44275       -0.03247
C         -0.79531        0.71849       -0.03009
S          0.58375       -0.34300       -0.02869
C         -2.09838        0.07725       -0.04678
C         -3.29307        0.69227        0.04444
C         -4.59934        0.05650        0.02846
C         -5.01990       -1.25323        0.00125
Cl        -4.02210       -2.66188       -0.01630
C         -6.43890       -1.38073        0.00013
F         -7.02998       -2.56950       -0.02262
C         -7.10219       -0.19701        0.02640
H         -8.17039       -0.04032        0.03016
S         -5.98766        1.11087        0.05291
C          3.92254       -0.32776       -0.00035
C          3.71209       -1.79386       -0.00288
O          2.68285       -2.43334       -0.01414
N          4.99856       -2.34791        0.01098
C          5.25697       -3.77141        0.01213
C          6.02460       -1.39306        0.01883
O          7.20488       -1.64817        0.02924
C          5.31953       -0.08629        0.01220
C          5.65260        1.22639        0.01834
H          6.63264        1.68301        0.02875
S          4.22720        2.20200        0.00917
H         -2.06442       -1.00297       -0.13980
H         -3.32415        1.77237        0.13998
H          4.29337       -4.28167        0.00137
H          5.81757       -4.05267        0.90710
H          5.83653       -4.05077       -0.87129
