36
COMP26_000310.log	Energy: -892976.4985435
C         -1.63276       -0.17476       -0.05967
C         -0.16071       -0.26961       -0.16874
C          0.65441        0.55736        0.61778
C          2.02796        0.44614        0.51202
C          3.10636        1.20322        1.25202
H          3.03624        2.28400        1.07785
H          3.04024        1.04847        2.33602
C          4.37458        0.61762        0.67486
C          5.69645        0.91990        0.96696
C          6.70850        0.23495        0.29505
H          7.74796        0.46043        0.51380
C          6.40042       -0.73934       -0.65604
C          5.07543       -1.04589       -0.95208
C          4.06612       -0.36194       -0.28149
C          2.60532       -0.47002       -0.38198
C          1.80308       -1.28324       -1.17446
C          0.42221       -1.18009       -1.05995
C         -2.29114        1.09902       -0.15952
N         -1.68483        2.27264       -0.35092
S         -2.85633        3.39381       -0.41059
N         -4.17037        2.46148       -0.20409
C         -3.72199        1.21146       -0.07848
C         -4.52966        0.05828        0.10708
H         -5.60747        0.14605        0.16813
C         -3.89758       -1.14892        0.20489
C         -4.69088       -2.33143        0.39701
N         -5.35527       -3.26800        0.54900
C         -2.45409       -1.26881        0.12822
C         -1.89250       -2.58036        0.29404
N         -1.46802       -3.64913        0.43584
H          0.20736        1.26778        1.30601
H          5.94376        1.67636        1.70679
H          7.20239       -1.26244       -1.16814
H          4.83778       -1.80527       -1.69166
H          2.23794       -1.99075       -1.87380
H         -0.21261       -1.80551       -1.67947
