34
COMP31_200000.log	Energy: -1761069.2292681
C          2.83997       -0.25092        0.04420
C          1.36959       -0.17161        0.01509
C          0.60610        0.92304       -0.22004
Cl         1.34852        2.45160       -0.57718
C         -0.82508        0.68624       -0.15972
C         -1.90233        1.56844       -0.34424
C         -1.74203        3.03402       -0.66012
C         -3.17104        1.00705       -0.21308
S         -4.66197        1.91738       -0.39721
C         -5.60561        0.50268       -0.08443
H         -6.68555        0.55291       -0.08739
C         -4.85426       -0.59422        0.14554
Cl        -5.61616       -2.12334        0.47601
C         -3.42112       -0.35991        0.08443
C         -2.34422       -1.24112        0.26870
C         -2.50765       -2.70576        0.58714
C         -1.07561       -0.67956        0.13823
S          0.40982       -1.58953        0.33015
C          3.57113        0.37723        1.05275
F          2.94181        1.05625        2.00808
C          4.95781        0.30351        1.07899
F          5.62155        0.91871        2.05819
C          5.64873       -0.40349        0.10892
H          6.73003       -0.46208        0.13419
C          4.93152       -1.03537       -0.89299
F          5.56832       -1.72172       -1.84241
C          3.54485       -0.96114       -0.92720
F          2.88702       -1.57507       -1.90941
H         -1.19976        3.55520        0.13337
H         -2.71248        3.52348       -0.77208
H         -1.18956        3.18283       -1.59133
H         -3.07265       -2.85158        1.51130
H         -1.53887       -3.19549        0.71355
H         -3.03965       -3.22950       -0.21178
