35
COMP42_330002.log	Energy: -1518825.0949086
C         -1.99767        1.12902        0.18054
C         -0.54843        1.19018        0.04351
C          0.27089        2.30650        0.03401
C         -0.17043        3.66037        0.11813
N         -0.50330        4.76878        0.18549
C          1.65953        1.98026       -0.07311
C          2.69516        2.96296       -0.08532
N          3.54014        3.75575       -0.10134
C          1.87920        0.62261       -0.14164
S          0.39512       -0.25481       -0.10472
C          3.15424       -0.07409       -0.27328
S          4.34353        0.43334       -1.42318
C          5.41508       -0.81742       -0.97039
H          6.38187       -0.91816       -1.44369
C          4.89654       -1.60926        0.01781
C          5.58574       -2.72465        0.58491
N          6.14896       -3.62893        1.03948
C          3.58783       -1.18234        0.42386
C          2.84171       -1.81959        1.46119
N          2.23521       -2.33548        2.30300
C         -2.85556        0.08709       -0.06797
C         -2.77252       -1.31275       -0.56696
O         -1.82150       -1.97921       -0.89583
N         -4.10370       -1.74466       -0.55532
O         -4.46702       -2.94598       -1.07221
C         -4.51306       -3.94558       -0.04717
C         -5.05446       -0.79688       -0.12728
O         -6.24054       -0.97482       -0.04897
C         -4.21563        0.38582        0.19615
C         -4.42100        1.64512        0.65660
H         -5.35016        2.12817        0.92686
S         -2.92923        2.49483        0.76683
H         -4.80445       -4.85934       -0.56523
H         -5.26285       -3.68530        0.70542
H         -3.52692       -4.07165        0.40929
