52
COMP81_100001.log	Energy: -1463442.1387483
C         -0.03369        0.04134        0.07663
C         -1.50086        0.07566        0.06403
C         -2.37365       -0.94105       -0.14484
F         -1.96049       -2.19696       -0.38333
C         -3.77454       -0.60143       -0.11928
C         -4.90519       -1.41048       -0.30419
C         -4.86938       -2.88904       -0.58630
C         -6.12979       -0.75305       -0.21707
S         -7.68295       -1.54681       -0.41433
C         -8.52238       -0.04547       -0.15638
H         -9.60130        0.00562       -0.18001
C         -7.67505        0.97755        0.06186
F         -8.10419        2.22675        0.28447
C         -6.27085        0.63431        0.03879
C         -5.13994        1.44249        0.22114
C         -5.17955        2.92138        0.50053
C         -3.91613        0.78607        0.13124
S         -2.36774        1.57927        0.32858
C          0.70623        1.17599       -0.27781
C          2.09710        1.18228       -0.26061
C          2.79548        0.03464        0.11835
C          4.21949       -0.35196        0.20384
C          4.19638       -1.81510        0.63345
O          5.10851       -2.58047        0.87378
N          2.87343       -2.15473        0.76523
H          2.59052       -3.07686        1.05682
C          2.02782       -1.10083        0.45361
C          0.64855       -1.12622        0.44945
C          5.37310        0.34601       -0.00417
C          5.40462        1.85889       -0.19547
O          4.50206        2.67266       -0.18493
N          6.72423        2.19789       -0.34809
H          7.01298        3.15573       -0.46843
C          7.56018        1.09100       -0.29768
C          8.93396        1.07678       -0.45641
C          9.57778       -0.15812       -0.40190
H         10.65608       -0.20388       -0.52162
C          8.84896       -1.32657       -0.20303
C          7.46443       -1.29434       -0.04163
C          6.79073       -0.07110       -0.07584
H         -3.85796       -3.28826       -0.58107
H         -5.31466       -3.10038       -1.56615
H         -5.45684       -3.43477        0.16193
H         -6.19402        3.31344        0.50499
H         -4.60397        3.46877       -0.25567
H         -4.72482        3.13770        1.47489
H          0.18884        2.07778       -0.59024
H          2.63361        2.07782       -0.53041
H          0.11088       -2.02344        0.72991
H          9.48563        1.99667       -0.62297
H          9.36086       -2.28269       -0.16769
H          6.91631       -2.20790        0.12476
