40
COMP55_000320.log	Energy: -1224714.4421583
C         -0.72201        0.07883       -0.17953
C          0.67361       -0.37260       -0.17280
C          1.65300        0.45996        0.36969
C          2.96867        0.02766        0.29492
N          4.11278        0.65418        0.72646
O          4.15441        1.92132        1.23049
C          4.15603        2.88765        0.17041
C          5.22553       -0.10299        0.42216
C          6.57202        0.16881        0.65186
C          7.48474       -0.79378        0.24707
H          8.54410       -0.61962        0.40929
C          7.07118       -1.99038       -0.36205
C          5.72674       -2.24814       -0.58264
C          4.78313       -1.29506       -0.19226
C          3.33897       -1.21141       -0.27662
C          2.33842       -2.04161       -0.78202
C          1.01896       -1.62073       -0.73385
C         -1.22053        1.34658       -0.40966
C         -0.40488        2.48333       -0.71869
N          0.28329        3.38476       -0.95789
N         -2.58199        1.48861       -0.36622
C         -3.14167        0.34455       -0.11090
S         -2.04961       -0.98978        0.11017
C         -4.58234        0.16682       -0.00812
S         -5.67179        1.50881       -0.21547
C         -6.97906        0.43543        0.05621
H         -8.00817        0.76507        0.04125
C         -6.50841       -0.83086        0.27825
C         -7.34867       -1.96249        0.53932
N         -8.05070       -2.85964        0.74782
N         -5.14504       -0.97871        0.24097
H          1.40742        1.40385        0.84184
H          4.25666        3.85233        0.66861
H          3.21566        2.85521       -0.38977
H          5.00429        2.71743       -0.50069
H          6.88081        1.09001        1.13336
H          7.81584       -2.72057       -0.66165
H          5.41091       -3.17421       -1.05407
H          2.58829       -2.99984       -1.22689
H          0.24221       -2.24639       -1.16289
