26
COMP54_400100.log	Energy: -1576085.4716618
C         -0.01417        0.40839       -0.18507
C          1.41938        0.18848       -0.08402
C          2.12449       -0.83961       -0.65969
O          1.64329       -1.82575       -1.44381
C          3.51114       -0.77281       -0.34511
S          4.89971       -1.71796       -0.75555
C          5.91549       -0.64175        0.16929
H          6.97866       -0.83180        0.23342
C          5.22478        0.38039        0.75206
O          5.69688        1.38365        1.52893
C          3.83050        0.30228        0.45465
S          2.45195        1.26191        0.85623
C         -0.68796        1.47520       -0.71982
F         -0.08206        2.51304       -1.26874
N         -2.03593        1.46595       -0.68671
C         -2.45122        0.36676       -0.11413
S         -1.20803       -0.70392        0.43827
C         -3.85757        0.04077        0.05038
S         -5.10219        1.11274       -0.50544
C         -6.27247       -0.00949        0.07060
H         -7.33533        0.15532       -0.01762
C         -5.62729       -1.07530        0.62140
F         -6.23981       -2.11846        1.15731
N         -4.27577       -1.05943        0.61713
H          0.70759       -1.66386       -1.62678
H          6.65289        1.29586        1.62063
