46
COMP97_130001.log	Energy: -1575656.4005350
C          1.76055       -0.20199        0.14045
C          0.31569       -0.08766        0.44420
C         -0.23831        0.22801        1.66028
C          0.52804        0.56617        2.81326
N          1.17218        0.83845        3.73732
C         -1.66055        0.22387        1.60865
F         -2.38765        0.51380        2.68608
C         -2.19510       -0.09960        0.39208
S         -0.89739       -0.40875       -0.72750
C         -3.57651       -0.19954       -0.04351
C         -4.64588        0.00023        0.74947
C         -6.02744       -0.08415        0.30974
C         -6.56049       -0.35729       -0.92112
F         -5.83100       -0.61608       -2.00531
C         -7.98496       -0.34681       -0.97645
C         -8.73603       -0.60681       -2.16118
N         -9.34588       -0.81830       -3.12335
C         -8.53088       -0.05837        0.24769
H         -9.58115        0.01554        0.49079
S         -7.32696        0.19543        1.43472
C          2.34032       -1.48800        0.23282
C          3.68227       -1.67682        0.01954
C          4.25481       -3.04723        0.13321
O          3.59491       -4.03014        0.39237
N          5.62345       -3.13291       -0.08363
H          6.02637       -4.06000       -0.00659
C          6.51290       -2.11022       -0.39383
O          7.69216       -2.33593       -0.55909
C          5.90906       -0.75385       -0.50415
C          6.71029        0.32204       -0.80537
H          7.77172        0.16034       -0.95939
C          6.15072        1.60882       -0.90818
C          4.80349        1.80172       -0.70890
C          4.24831        3.17475       -0.82327
O          4.91237        4.15486       -1.08304
N          2.88047        3.26862       -0.61227
H          2.48203        4.19719       -0.69520
C          1.97260        2.26060       -0.31977
O          0.79403        2.52005       -0.20360
C          2.55521        0.88955       -0.18144
C          3.94953        0.71106       -0.39676
C          4.51764       -0.57966       -0.29430
H         -3.72636       -0.44510       -1.08986
H         -4.49686        0.24552        1.79591
H          1.72180       -2.34274        0.48732
H          6.76894        2.46847       -1.14397
