31
COMP22_230300.log	Energy: -1964118.8827864
C          2.24529        0.24411       -0.05933
C          0.84468        0.05961        0.35473
C          0.38962       -0.60624        1.45632
Cl         1.41703       -1.32937        2.63233
C         -1.03596       -0.63832        1.54842
C         -1.74121       -1.29434        2.60102
N         -2.31357       -1.82579        3.45713
C         -1.64291        0.01013        0.49105
S         -0.47067        0.65772       -0.59300
C         -3.06966        0.20020        0.25421
S         -4.12164        0.73394        1.51418
C         -5.48741        0.71979        0.47643
H         -6.46689        0.99100        0.84358
C         -5.15556        0.33075       -0.78456
Cl        -6.28229        0.19722       -2.08219
C         -3.76387        0.02922       -0.92808
C         -3.17330       -0.42634       -2.14467
N         -2.68711       -0.79212       -3.13112
C          2.99511       -0.87081       -0.54829
N          2.53500       -2.11448       -0.68748
S          3.76948       -2.98975       -1.27045
N          4.92164       -1.85248       -1.37666
C          4.36468       -0.71754       -0.94665
C          5.00040        0.54978       -0.87000
H          6.03482        0.66404       -1.17132
C          4.26970        1.61043       -0.40713
C          4.88804        2.90309       -0.31614
N          5.40388        3.93794       -0.25040
C          2.88876        1.45925        0.00216
C          2.18638        2.60607        0.50497
N          1.61018        3.52521        0.91094
