48
COMP81_300011.log	Energy: -1405332.2686857
C         -0.18537        0.02288        0.07751
C         -1.65446        0.02582        0.05434
C         -2.51131       -1.01091       -0.20908
C         -2.11093       -2.33600       -0.54925
N         -1.83791       -3.43124       -0.81822
C         -3.90983       -0.64068       -0.15425
C         -5.02320       -1.44810       -0.37877
H         -4.90350       -2.49910       -0.62296
C         -6.27244       -0.85397       -0.27515
S         -7.82410       -1.63435       -0.50560
C         -8.66108       -0.15706       -0.18283
H         -9.74216       -0.12834       -0.20976
C         -7.83068        0.88493        0.08771
C         -8.27651        2.20733        0.38515
N         -8.60105        3.29313        0.63065
C         -6.42969        0.51671        0.04286
C         -5.31537        1.32429        0.26499
H         -5.43476        2.37614        0.50559
C         -4.06757        0.72994        0.16082
S         -2.51859        1.50503        0.39406
C          0.52993        1.14244       -0.36250
C          1.92104        1.17041       -0.34980
C          2.63498        0.06400        0.11100
C          4.06634       -0.29326        0.21406
C          4.07052       -1.73219        0.71418
O          4.99620       -2.47762        0.96126
N          2.75334       -2.07463        0.90485
H          2.48495       -2.99816        1.20713
C          1.89027       -1.05990        0.52826
C          0.51067       -1.10282        0.53795
C          5.20435        0.42203       -0.01518
C          5.20361        1.93155       -0.24746
O          4.27968        2.71981       -0.28017
N          6.51750        2.29819       -0.37511
H          6.78622        3.25743       -0.52729
C          7.37674        1.21046       -0.29191
C          8.75228        1.22233       -0.43142
C          9.41967        0.00136       -0.34812
H         10.50014       -0.02379       -0.45306
C          8.71304       -1.17945       -0.14141
C          7.32632       -1.17375        0.00117
C          6.62971        0.03581       -0.05981
H         -0.00381        2.00622       -0.74628
H          2.44396        2.05077       -0.68781
H         -0.01042       -1.98294        0.89681
H          9.28808        2.15001       -0.60568
H          9.24399       -2.12405       -0.08590
H          6.79392       -2.09589        0.17164
