33
COMP27_220300.log	Energy: -2473734.1879907
C          3.15780        0.31386       -0.03252
C          1.79505       -0.14128        0.27509
C          1.42931       -1.25344        0.98058
Cl         2.54925       -2.31747        1.74108
C          0.01549       -1.42442        1.05342
Cl        -0.72433       -2.73351        1.89702
C         -0.68932       -0.44086        0.40258
S          0.40174        0.69733       -0.31957
C         -2.13159       -0.33073        0.29389
C         -2.77948        0.75894       -0.15383
C         -4.21570        0.92182       -0.30705
C         -5.26383        0.03012       -0.31202
Cl        -5.11734       -1.68016       -0.13924
C         -6.53460        0.65607       -0.50978
Cl        -8.02518       -0.21243       -0.56270
C         -6.44648        2.00577       -0.65564
H         -7.25619        2.70331       -0.81298
S         -4.81895        2.53587       -0.55407
C          4.00258       -0.48675       -0.86727
N          3.66049       -1.64494       -1.43224
S          4.95764       -2.14263       -2.26832
N          5.99353       -0.93022       -1.96676
C          5.34094       -0.07290       -1.17844
C          5.85162        1.15324       -0.67678
H          6.86101        1.46611       -0.91543
C          5.03081        1.91813        0.10591
C          5.52157        3.16559        0.62145
N          5.93739        4.16910        1.02339
C          3.68322        1.49892        0.43458
C          2.89788        2.33961        1.29349
N          2.27064        3.02289        1.98740
H         -2.68017       -1.20713        0.61825
H         -2.19834        1.64122       -0.42145
