31
COMP47_000001.log	Energy: -1264145.9805271
C          2.49391       -0.49935        0.00157
C          1.10078       -0.10806        0.00357
C          0.59293        1.17156        0.00860
H          1.23234        2.04720        0.01097
C         -0.81900        1.20708        0.00950
H         -1.38594        2.13051        0.01424
C         -1.40372       -0.03905        0.00484
S         -0.18675       -1.27731       -0.00065
C         -2.80505       -0.42251        0.00418
C         -3.83327        0.44444       -0.00130
C         -5.23788        0.07058       -0.00133
C         -5.82584       -1.17180        0.00084
H         -5.26225       -2.09773        0.00306
C         -7.24523       -1.12129       -0.00060
H         -7.88061       -1.99907        0.00050
C         -7.72852        0.15568       -0.00385
H         -8.76040        0.47832       -0.00560
S         -6.45629        1.31253       -0.00498
C          3.63418        0.26767        0.00141
C          4.00064        1.70497       -0.00022
O          3.31713        2.70499        0.00395
N          5.40172        1.70634       -0.00712
H          5.93817        2.56205       -0.00314
C          5.99667        0.43841       -0.00450
O          7.18186        0.21376       -0.00549
C          4.83701       -0.49106       -0.00113
C          4.65324       -1.83250       -0.00238
H          5.38916       -2.62415       -0.00477
S          2.96146       -2.18907        0.00121
H         -3.01061       -1.49065        0.00889
H         -3.62384        1.51215       -0.00652
