32
COMP62_330001.log	Energy: -1231875.9410992
C          2.41548       -0.68510        0.10816
C          1.09941       -0.08421        0.16789
C          0.77167        1.17942        0.60990
C          1.69509        2.08763        1.20639
N          2.42515        2.81736        1.73189
C         -0.63214        1.44421        0.50905
C         -1.22568        2.67135        0.93410
N         -1.71382        3.66566        1.27407
C         -1.34664        0.37662        0.00620
S         -0.29847       -0.94623       -0.36629
C         -2.78118        0.28929       -0.24101
S         -3.64687        1.58985       -0.98534
C         -5.12310        0.73308       -0.92819
H         -6.03551        1.17724       -1.30113
C         -4.97845       -0.50869       -0.37159
C         -6.05436       -1.43301       -0.20219
N         -6.92981       -2.17972       -0.06978
C         -3.62528       -0.76960        0.02674
C         -3.21315       -1.98203        0.65759
N         -2.86883       -2.96576        1.16430
C          3.60244       -0.12092       -0.24933
C          4.18924        1.10195       -0.81232
O          3.72483        2.18074       -1.09908
N          5.54440        0.71953       -1.00889
H          6.23207        1.36162       -1.37162
C          5.77524       -0.58979       -0.65476
H          6.75345       -1.03476       -0.77869
C          4.61841       -1.13240       -0.19097
C          4.00843       -2.38899        0.24805
O          4.45110       -3.48837        0.48386
N          2.63061       -2.03365        0.36646
H          1.98132       -2.63785        0.85059
