32
COMP52_440000.log	Energy: -1594510.6921401
C          1.35081       -0.10028       -0.25631
C         -0.03989        0.30120       -0.19314
C         -0.56383        1.56327       -0.27585
O          0.07515        2.75539       -0.42268
C         -1.98350        1.59432       -0.20293
O         -2.69005        2.74736       -0.27431
C         -2.55286        0.35505       -0.06663
S         -1.31324       -0.87814       -0.01784
C         -3.96057        0.03803        0.03158
S         -5.20995        1.26342       -0.01800
C         -6.46201        0.08100        0.15551
H         -7.50021        0.38207        0.18207
C         -5.94899       -1.17385        0.24526
O         -6.58067       -2.37383        0.39018
C         -4.52449       -1.20219        0.17484
O         -3.81313       -2.35269        0.24513
C          1.89376       -1.22118       -0.83188
H          1.31900       -1.97298       -1.35963
N          3.24798       -1.35841       -0.73458
C          3.77233       -0.35196       -0.09787
S          2.63150        0.83415        0.47245
C          5.19646       -0.18957        0.14356
S          6.34579       -1.37015       -0.41198
C          7.59781       -0.40604        0.27322
H          8.63580       -0.70057        0.21283
C          7.06912        0.70726        0.85450
H          7.63977        1.47845        1.35687
N          5.70752        0.82712        0.77948
H          0.99135        2.61670       -0.69881
H         -2.06196        3.47128       -0.40916
H         -7.53451       -2.24150        0.42535
H         -4.43847       -3.08324        0.35258
