50
COMP77_030003.log	Energy: -1977242.7514070
C          0.54828       -2.25711       -0.15376
C         -0.84702       -1.93930        0.14627
C         -1.65015       -2.50194        1.11821
C         -1.18148       -3.47686        2.05282
N         -0.81319       -4.27344        2.81026
C         -2.97540       -1.98263        1.12512
H         -3.72236       -2.27403        1.85286
C         -3.18069       -1.04563        0.14667
S         -1.73536       -0.79013       -0.77772
C         -4.39180       -0.30268       -0.17329
C         -5.62765       -0.71527        0.15146
C         -6.83552        0.05881       -0.10018
C         -6.97380        1.40184       -0.32965
H         -6.15265        2.10778       -0.31428
C         -8.32996        1.78460       -0.55771
C         -8.74421        3.12845       -0.81850
N         -9.07248        4.21965       -1.03058
C         -9.20397        0.72937       -0.48616
H        -10.27691        0.75620       -0.61390
S         -8.38520       -0.73372       -0.14901
C          1.65822       -1.44331       -0.14644
C          1.69218       -0.02585        0.29441
O          0.75377        0.52175        0.83593
C          3.00836        0.65073        0.09807
C          3.23873        1.98974        0.30337
C          2.25124        3.09469        0.48520
O          1.21964        3.19978       -0.12425
O          2.71433        3.98956        1.36765
C          1.87908        5.13351        1.56888
S          4.91302        2.36510        0.18569
C          5.32594        0.73082       -0.15871
C          6.76677        0.35401       -0.26805
O          7.26510       -0.61416        0.24096
O          7.43780        1.28987       -0.95437
C          8.84623        1.06562       -1.06517
C          4.21127       -0.07209       -0.19717
C          4.18161       -1.49864       -0.63080
O          5.14628       -2.08047       -1.08256
C          2.84684       -2.13641       -0.54021
C          2.62245       -3.45130       -0.83346
H          3.36133       -4.17821       -1.14216
S          0.97503       -3.86511       -0.64569
H         -4.26302        0.63357       -0.71225
H         -5.75863       -1.68729        0.62269
H          2.41886        5.76689        2.27108
H          0.91699        4.82764        1.98548
H          1.71362        5.65514        0.62350
H          9.23018        1.90562       -1.64197
H          9.03720        0.12192       -1.58042
H          9.30659        1.03332       -0.07497
