60
COMP87_100003.log	Energy: -1700738.2413602
C         -0.86615        0.42243       -0.11695
C         -2.32842        0.47800       -0.20302
C         -3.09866        1.45204       -0.78420
H         -2.70894        2.32733       -1.28865
C         -4.47727        1.16476       -0.68715
F         -5.39689        1.98975       -1.20505
C         -4.79989       -0.00612       -0.04729
S         -3.32729       -0.77675        0.46470
C         -6.08190       -0.62475        0.22830
C         -7.27724       -0.10958       -0.12053
C         -8.56041       -0.73176        0.14768
C         -8.88074       -1.90456        0.78391
F         -7.96109       -2.72906        1.30375
C        -10.26401       -2.20238        0.86307
H        -10.65886       -3.09240        1.33577
C        -11.01218       -1.22953        0.27056
H        -12.08800       -1.18590        0.17660
S        -10.03508        0.03247       -0.37444
C         -0.19031       -0.79584        0.01978
C          1.19367       -0.85052        0.07330
C          1.94310        0.32443       -0.02689
C          3.37274        0.61630        0.08843
C          3.48244        2.12133        0.05080
O          4.47977        2.79709        0.05209
N          2.16548        2.62134       -0.10191
C          1.79124        3.96283       -0.25792
O          0.66852        4.30736       -0.54731
O          2.80280        4.79074       -0.03994
C          2.49275        6.17507       -0.21092
C          1.24684        1.54485       -0.12824
C         -0.13276        1.61600       -0.17337
C          4.47241       -0.19280        0.14604
C          4.42715       -1.63372       -0.30320
O          3.49606       -2.23697       -0.77463
N          5.74098       -2.14086       -0.17612
C          6.17793       -3.42753       -0.51818
O          7.34340       -3.74877       -0.53520
O          5.16673       -4.23764       -0.80023
C          5.54749       -5.56272       -1.17418
C          6.59504       -1.13318        0.33602
C          7.93547       -1.24563        0.67167
C          8.55661       -0.13495        1.23816
H          9.60772       -0.20035        1.50242
C          7.85128        1.04101        1.47476
C          6.50979        1.14344        1.12671
C          5.86508        0.05633        0.52912
H         -6.04606       -1.57484        0.75159
H         -7.31251        0.84003       -0.64475
H         -0.75004       -1.72549        0.05756
H          1.68544       -1.80573        0.16449
H          3.43334        6.69696       -0.04265
H          1.74012        6.49105        0.51488
H          2.12190        6.36266       -1.22081
H         -0.62873        2.57290       -0.23386
H          4.61114       -6.07466       -1.39030
H          6.07656       -6.05429       -0.35454
H          6.18946       -5.54275       -2.05760
H          8.47268       -2.16584        0.49718
H          8.34828        1.89189        1.92920
H          5.97636        2.06421        1.30147
