36
COMP63_000000.log	Energy: -551596.4515827
C          0.02310        0.49700        0.17408
C         -1.32001       -0.10254        0.17311
C         -2.28542        0.44464       -0.68437
C         -3.56762       -0.08053       -0.77687
C         -4.58759        0.49506       -1.72634
C         -3.87861       -1.17521        0.03439
H         -4.87511       -1.60854       -0.00815
C         -2.93363       -1.71792        0.89208
C         -1.63538       -1.20727        0.98171
C         -0.64128       -1.84369        1.91592
C          1.24837       -0.08080       -0.02002
C          1.89583       -1.34316       -0.34313
O          1.49340       -2.48899       -0.44730
N          3.26050       -0.97115       -0.51847
C          4.29124       -1.93216       -0.83643
C          3.43880        0.38375       -0.33382
H          4.41765        0.82902       -0.45715
C          2.24646        0.95012       -0.02107
C          1.58777        2.22625        0.22380
O          1.99897        3.36127        0.35137
N          0.21078        1.86743        0.32357
C         -0.78190        2.84823        0.71064
H         -2.00960        1.28455       -1.31722
H         -4.21389        1.40000       -2.21399
H         -5.51515        0.75217       -1.20330
H         -4.84455       -0.22562       -2.51082
H         -3.20461       -2.56679        1.51446
H         -1.15350       -2.46615        2.65503
H         -0.04515       -1.09738        2.45002
H          0.05217       -2.47734        1.35133
H          3.80371       -2.90511       -0.91964
H          5.04779       -1.97522       -0.04664
H          4.77396       -1.69039       -1.78857
H         -0.25159        3.67286        1.19076
H         -1.49763        2.40769        1.40793
H         -1.32330        3.24341       -0.15437
