36
COMP57_330100.log	Energy: -1810271.0561586
C         -2.18329       -0.21485       -0.01555
C         -0.81526        0.25268       -0.02413
C         -0.33533        1.54933       -0.02964
C         -1.15651        2.71442       -0.03195
N         -1.81879        3.66644       -0.03367
C          1.09604        1.62364       -0.03543
C          1.79279        2.86685       -0.05039
N          2.37531        3.86959       -0.06045
C          1.70332        0.38403       -0.03270
S          0.50721       -0.86957       -0.02634
C          3.09863       -0.01933       -0.03768
C          4.15514        0.81298        0.04018
C          5.55171        0.41023        0.03552
C          6.15981       -0.83251        0.00775
C          5.46277       -2.07496       -0.02196
N          4.88237       -3.07873       -0.04638
C          7.59391       -0.75156        0.01855
C          8.45867       -1.88889       -0.00261
N          9.16552       -2.80653       -0.01902
C          8.04513        0.53899        0.05466
H          9.07443        0.86866        0.06975
S          6.75472        1.65943        0.07608
C         -2.61190       -1.52267       -0.01048
F         -1.77654       -2.55087       -0.01456
N         -3.92862       -1.76948       -0.00044
C         -4.57563       -0.63100        0.00255
S         -3.60209        0.79855       -0.00687
C         -6.02410       -0.54143        0.01356
S         -7.02078       -1.95857        0.02478
C         -8.40378       -0.93825        0.03372
H         -9.41296       -1.32097        0.04308
C         -7.99437        0.36287        0.02754
F         -8.81514        1.39826        0.03196
N         -6.66459        0.59752        0.01623
H          3.26160       -1.09022       -0.10931
H          3.99208        1.88350        0.11477
