52
COMP82_000002.log	Energy: -1385393.2705629
C          1.64861        0.44565       -0.15995
C          3.11347        0.51668       -0.12671
C          3.90832        1.62799       -0.23854
H          3.50942        2.62353       -0.39623
C          5.29527        1.34384       -0.14975
H          6.07096        2.09971       -0.19941
C          5.56189        0.01072        0.02884
S          4.08907       -0.90771        0.07913
C          6.85219       -0.64738        0.17099
S          8.28110        0.02945       -0.55336
C          9.26421       -1.24689        0.05963
H         10.32691       -1.25718       -0.13958
C          8.53151       -2.15167        0.76827
H          8.95863       -3.03008        1.23713
C          7.15127       -1.80935        0.83391
H          6.40931       -2.38895        1.37188
C          0.97981       -0.70178       -0.60212
C         -0.41046       -0.78139       -0.63468
C         -1.17830        0.30801       -0.22188
C         -2.62238        0.61323       -0.13206
C         -2.69211        2.08732        0.24738
O         -3.62869        2.85661        0.30722
N         -1.39399        2.44400        0.52983
O         -1.02503        3.71811        0.84280
C         -0.98469        4.53978       -0.32940
C         -0.47650        1.45872        0.18990
C          0.89484        1.55709        0.24973
C         -3.72811       -0.17801       -0.22114
C         -3.64595       -1.69162       -0.36371
O         -2.72301       -2.42093       -0.65720
N         -4.90509       -2.15314       -0.03623
O         -5.28784       -3.43032       -0.35157
C         -4.98130       -4.31503        0.72601
C         -5.84294       -1.12435        0.00363
C         -7.21272       -1.25552        0.10695
C         -7.96327       -0.08011        0.11979
H         -9.04462       -0.14023        0.19852
C         -7.34072        1.16099        0.02349
C         -5.95388        1.26886       -0.08198
C         -5.17249        0.11160       -0.08366
H          1.55414       -1.55289       -0.95529
H         -0.89152       -1.67951       -0.98877
H         -0.63036        5.50965        0.02190
H         -1.98389        4.63816       -0.76147
H         -0.28400        4.12812       -1.06456
H          1.36214        2.45742        0.63184
H         -5.36742       -5.28520        0.40959
H         -5.47960       -3.99207        1.64622
H         -3.90009       -4.37337        0.87725
H         -7.67177       -2.23590        0.15768
H         -7.93942        2.06613        0.02385
H         -5.48484        2.23650       -0.16532
