32
COMP53_000220.log	Energy: -1578730.1171525
C         -0.90050       -0.11458       -0.18254
C         -2.28042        0.36555       -0.00647
C         -3.22501       -0.47802        0.58882
C         -4.54381       -0.06631        0.75672
O         -5.52338       -0.82369        1.31624
C         -5.19278       -2.13585        1.71220
C         -4.91482        1.21144        0.33927
H         -5.94339        1.52716        0.47779
C         -3.98518        2.06363       -0.23800
C         -2.66292        1.65209       -0.41631
O         -1.69097        2.42174       -0.97157
C         -2.02455        3.72565       -1.39134
C         -0.45552       -1.32258       -0.66444
Cl        -1.47530       -2.56056       -1.32105
N          0.88195       -1.54859       -0.65572
C          1.50085       -0.51206       -0.16096
S          0.48746        0.80599        0.30638
C          2.94758       -0.45140       -0.02571
S          3.94958       -1.78024       -0.52059
C          5.32537       -0.87524       -0.02247
H          6.33151       -1.25762       -0.10817
C          4.91998        0.33086        0.46551
Cl         5.99810        1.53896        1.07293
N          3.58247        0.57592        0.46714
H         -2.90061       -1.45668        0.91931
H         -6.11293       -2.57417        2.09995
H         -4.43128       -2.13907        2.50297
H         -4.83396       -2.73363        0.86420
H         -4.30349        3.05106       -0.55078
H         -1.10636        4.15286       -1.79495
H         -2.37342        4.34122       -0.55255
H         -2.79206        3.70946       -2.17526
