23
COMP44_200001.log	Energy: -1743805.2359268
C         -1.41827        0.52920        0.23871
C          0.02658        0.38989        0.11732
C          0.96546        1.34104       -0.20535
Cl         0.63570        2.98291       -0.63353
C          2.28848        0.83027       -0.18141
S          3.86086        1.48027       -0.50060
C          4.58372       -0.06366       -0.16502
H          5.65528       -0.18876       -0.23147
C          3.67083       -1.01501        0.16873
Cl         4.05911       -2.65286        0.56082
C          2.33985       -0.50436        0.16405
S          0.77430       -1.16114        0.45241
C         -2.41358       -0.36416       -0.05867
C         -2.54128       -1.71613       -0.67469
O         -1.69906       -2.48336       -1.07268
N         -3.92250       -1.94868       -0.70409
H         -4.31586       -2.80443       -1.06929
C         -4.71088       -0.91976       -0.17238
O         -5.91419       -0.91856       -0.09659
C         -3.71772        0.10490        0.24355
C         -3.74695        1.34817        0.78470
H         -4.60021        1.94027        1.08596
S         -2.14422        1.96437        0.93421
