39
COMP21_300400.log	Energy: -1463165.0110889
C          2.50076        0.14187        0.27996
C          1.03605        0.09926        0.18860
C          0.21118        1.09245       -0.26784
C          0.76878        2.29600       -0.79363
N          1.26252        3.25227       -1.22707
C         -1.20281        0.75796       -0.20128
C         -2.33075        1.50935       -0.56444
C         -2.30498        2.90796       -1.12217
C         -3.55822        0.87740       -0.37709
S         -5.09486        1.62981       -0.76652
C         -5.95254        0.23246       -0.24445
H         -7.03300        0.20394       -0.29136
C         -5.14581       -0.76668        0.20507
C         -5.72337       -1.98504        0.67644
N         -6.23272       -2.95735        1.05182
C         -3.72844       -0.43113        0.14320
C         -2.60146       -1.18076        0.50794
C         -2.63029       -2.57747        1.06945
C         -1.37332       -0.54868        0.32219
S          0.15538       -1.30194        0.70982
C          3.32225       -0.85947       -0.34194
N          2.88427       -1.90582       -1.03216
S          4.20597       -2.72275       -1.53333
N          5.37690       -1.77767       -0.89965
C          4.75971       -0.78542       -0.26894
C          5.39522        0.28354        0.42914
H          6.47795        0.33583        0.47627
C          4.59515        1.20737        1.01901
O          5.02862        2.28404        1.72675
C          3.14695        1.14154        0.96264
O          2.45691        2.08425        1.61932
H         -1.30837        3.34301       -1.15197
H         -2.93646        3.56887       -0.51635
H         -2.70266        2.91972       -2.14421
H         -3.63177       -2.99907        1.12918
H         -2.20268       -2.59173        2.07919
H         -2.02411       -3.24757        0.44813
H          5.99176        2.33604        1.70864
H          3.08009        2.74754        1.95269
