44
COMP77_220002.log	Energy: -2872862.3158492
C         -1.67817       -1.85908       -0.65064
C         -0.32138       -1.70570       -0.12393
C          0.17020       -2.15794        1.06685
Cl        -0.76999       -3.04324        2.20770
C          1.53392       -1.79780        1.27980
Cl         2.40306       -2.23787        2.70516
C          2.07883       -1.07772        0.24483
S          0.89223       -0.83652       -0.99851
C          3.43486       -0.57135        0.16140
C          3.95492        0.05091       -0.91104
C          5.29742        0.59249       -1.04797
C          6.30187        0.85654       -0.14573
Cl         6.20281        0.59842        1.55785
C          7.47283        1.41219       -0.75233
Cl         8.89023        1.84486        0.13460
C          7.35427        1.56939       -2.09768
H          8.09314        1.96276       -2.78036
S          5.81708        1.04246       -2.64828
C         -2.74289       -1.00022       -0.53434
C         -2.70938        0.30992        0.17649
O         -1.69785        0.74188        0.70130
C         -4.00053        1.02004        0.17897
C         -4.20627        2.23223        0.77793
O         -3.29489        2.94487        1.42947
C         -3.68142        4.17312        2.02048
S         -5.86752        2.78777        0.59063
C         -6.27197        1.33607       -0.32168
O         -7.49314        1.11804       -0.79669
C         -8.49754        2.09167       -0.57225
C         -5.19748        0.50243       -0.45939
C         -5.22649       -0.78428       -1.17371
O         -6.21088       -1.24373       -1.72710
C         -3.92569       -1.50445       -1.16444
C         -3.73516       -2.72421       -1.74709
H         -4.47602       -3.30520       -2.27939
S         -2.12946       -3.27947       -1.53889
H          4.03377       -0.73369        1.04971
H          3.33451        0.17019       -1.79878
H         -2.78256        4.57048        2.48984
H         -4.45481        4.01688        2.78229
H         -4.04028        4.87930        1.26162
H         -9.40049        1.69574       -1.03506
H         -8.23223        3.04601       -1.04308
H         -8.67057        2.23874        0.50077
