31
COMP42_020002.log	Energy: -1864172.7511421
C         -1.50398       -0.94248       -0.28088
C         -0.19108       -0.32263       -0.25158
C          0.08638        1.01861       -0.17580
H         -0.67599        1.78748       -0.12892
C          1.48160        1.26923       -0.15240
Cl         2.12492        2.87189       -0.03931
C          2.26468        0.14500       -0.20663
S          1.26511       -1.26844       -0.29973
C          3.72055        0.03580       -0.20816
S          4.66747        0.54466       -1.57247
C          6.13528        0.08913       -0.80209
H          7.08142        0.23740       -1.30414
C          5.92731       -0.43340        0.43777
H          6.70825       -0.78054        1.10188
C          4.54321       -0.46184        0.76809
Cl         3.97015       -1.05814        2.29095
C         -2.75015       -0.37501       -0.20612
C         -3.33611        0.98062       -0.06361
O         -2.83026        2.07466        0.02013
N         -4.71922        0.73595       -0.01908
O         -5.62032        1.75224       -0.04213
C         -5.99947        2.11914        1.28740
C         -5.11286       -0.60801       -0.15453
O         -6.24554       -1.01469       -0.15473
C         -3.81393       -1.31886       -0.26172
C         -3.41076       -2.60593       -0.38013
H         -4.00619       -3.50616       -0.44094
S         -1.68514       -2.67843       -0.43146
H         -6.72525        2.92255        1.15802
H         -5.13189        2.48337        1.84564
H         -6.46620        1.27195        1.79878
