52
COMP82_020002.log	Energy: -1962171.4450948
C          0.91736        0.37316        0.13514
C          2.38100        0.42725        0.24593
C          3.12891        1.23436        1.05971
H          2.71123        1.93780        1.76929
C          4.52270        1.00824        0.91265
Cl         5.69666        1.87407        1.84898
C          4.84562        0.03931       -0.00087
S          3.39640       -0.59892       -0.71280
C          6.16231       -0.43600       -0.41447
S          7.26270        0.59022       -1.28424
C          8.44438       -0.65459       -1.38723
H          9.39143       -0.46791       -1.87443
C          8.02901       -1.80837       -0.79587
H          8.61159       -2.71886       -0.73934
C          6.72361       -1.67450       -0.24450
Cl         5.93866       -2.97752        0.58703
C          0.25612       -0.81987       -0.17351
C         -1.13206       -0.88692       -0.27158
C         -1.89833        0.25614       -0.04653
C         -3.33771        0.58785       -0.10713
C         -3.40579        2.09989        0.06358
O         -4.33554        2.87503       -0.01902
N         -2.11773        2.48158        0.36315
O         -1.74362        3.78085        0.53205
C         -1.64003        4.44727       -0.73188
C         -1.20106        1.44773        0.23691
C          0.16881        1.54224        0.33891
C         -4.44850       -0.19645       -0.18743
C         -4.39545       -1.71443       -0.05975
O         -3.46213       -2.48829       -0.07032
N         -5.70308       -2.10194        0.14656
O         -6.08113       -3.41135        0.01605
C         -5.95165       -4.08692        1.26774
C         -6.60353       -1.07187       -0.10862
C         -7.97733       -1.17207       -0.19208
C         -8.68135       -0.00261       -0.47762
H         -9.76373       -0.03907       -0.55680
C         -8.01079        1.20158       -0.67338
C         -6.62082        1.27793       -0.58513
C         -5.88713        0.12750       -0.28848
H          0.83042       -1.72945       -0.32052
H         -1.61250       -1.82327       -0.50770
H         -1.26841        5.44454       -0.49385
H         -2.62169        4.51535       -1.20758
H         -0.92915        3.92736       -1.38343
H          0.64193        2.49598        0.54311
H         -6.32376       -5.09543        1.08167
H         -6.55806       -3.59684        2.03678
H         -4.90273       -4.12466        1.57356
H         -8.47044       -2.12784       -0.05882
H         -8.57285        2.10071       -0.90393
H         -6.11394        2.21692       -0.74266
