37
COMP55_000100.log	Energy: -1186358.1576049
C         -0.72961        0.18086       -0.19508
C          0.69347       -0.17645       -0.19861
C          1.65350        0.79661        0.08872
C          2.99411        0.42218        0.08349
N          4.11902        1.18862        0.33386
C          4.16803        2.59418        0.65173
C          5.23615        0.38005        0.22545
C          6.57911        0.71794        0.39463
C          7.51929       -0.29033        0.23110
H          8.57252       -0.05858        0.35841
C          7.13830       -1.60126       -0.09230
C          5.80026       -1.92874       -0.25983
C          4.83556       -0.93317       -0.10044
C          3.39324       -0.90570       -0.19208
C          2.42326       -1.86580       -0.47600
C          1.08820       -1.50065       -0.48327
C         -1.33386        1.39344       -0.41068
F         -0.66779        2.51317       -0.67809
N         -2.67776        1.46578       -0.35735
C         -3.16585        0.28324       -0.09027
S         -1.99210       -0.97185        0.11577
C         -4.58721        0.01565        0.03221
S         -5.76245        1.27825       -0.16228
C         -7.00141        0.11790        0.12917
H         -8.05134        0.36709        0.12961
C         -6.42383       -1.09606        0.34334
F         -7.10014       -2.20567        0.59684
N         -5.07475       -1.16825        0.29200
H          1.34971        1.81102        0.31527
H          3.15724        3.00169        0.67838
H          4.74100        3.14273       -0.10418
H          4.63101        2.75364        1.63198
H          6.88147        1.73032        0.64420
H          7.90005       -2.36521       -0.21152
H          5.50783       -2.94481       -0.50910
H          2.70891       -2.89008       -0.69603
H          0.33592       -2.24422       -0.72892
