25
COMP24_400100.log	Energy: -1326224.9752526
C         -1.11343        0.42339        0.09166
C          0.33172        0.18604        0.06656
C          1.04492       -0.96289        0.38080
O          0.61084       -2.15617        0.80639
C          2.44809       -0.76372        0.24084
S          3.82630       -1.78368        0.47296
C          4.87765       -0.48190       -0.02338
H          5.94820       -0.63732       -0.04790
C          4.20412        0.66084       -0.34507
O          4.70702        1.84603       -0.76647
C          2.79516        0.49299       -0.19068
S          1.42005        1.50174       -0.42253
C         -2.10275       -0.61318       -0.10146
N         -1.84518       -1.90637       -0.28188
S         -3.27174       -2.67842       -0.46393
N         -4.27380       -1.41021       -0.32710
C         -3.52044       -0.33063       -0.13246
C         -4.01228        0.99191        0.03672
H         -5.06984        1.21813        0.00884
C         -3.07220        1.94668        0.23101
F         -3.41295        3.21985        0.40843
C         -1.66671        1.67001        0.26433
F         -0.90175        2.74434        0.45896
H         -0.30190       -2.30275        0.48168
H          5.66904        1.78986       -0.80269
