36
COMP94_200001.log	Energy: -1815098.2452200
C          0.19790       -0.23023       -0.06045
C         -1.27848       -0.18825        0.02728
C         -2.03361        0.15466        1.10792
Cl        -1.38556        0.70741        2.61170
C         -3.42903        0.03425        0.85646
S         -4.87294        0.30831        1.76757
C         -5.84497       -0.18283        0.41424
H         -6.92304       -0.18493        0.49095
C         -5.10029       -0.53454       -0.66829
Cl        -5.75302       -1.07265       -2.17693
C         -3.70257       -0.41062       -0.41967
S         -2.25942       -0.68732       -1.32954
C          0.81138       -1.49843        0.07193
C          2.17565       -1.63587        0.05402
C          2.77703       -2.98944        0.20350
O          2.12706       -4.00485        0.32950
N          4.16564       -3.02106        0.19068
H          4.58768       -3.93697        0.29331
C          5.05110       -1.95751        0.06104
O          6.25010       -2.13746        0.07265
C          4.41857       -0.61843       -0.08834
C          5.21513        0.49476       -0.22049
H          6.29303        0.37327       -0.21374
C          4.62812        1.76490       -0.35982
C          3.25924        1.90401       -0.36799
C          2.67749        3.26238       -0.51897
O          3.33778        4.27428       -0.62497
N          1.29289        3.30136       -0.53727
H          0.87664        4.21631       -0.66818
C          0.38604        2.25052       -0.44446
O         -0.80040        2.47029       -0.54859
C          0.98990        0.89729       -0.23265
C          2.40862        0.77464       -0.23356
C          3.00586       -0.49913       -0.08916
H          0.19503       -2.38217        0.20210
H          5.23981        2.65490       -0.46170
