29
COMP42_130001.log	Energy: -1455808.5566778
C         -2.29930        0.67986        0.05316
C         -0.85522        0.81512        0.01973
C         -0.13175        1.97005        0.16217
F         -0.68955        3.16138        0.35293
C          1.27661        1.81460        0.10794
C          2.18467        2.90169        0.26830
N          2.91486        3.79251        0.39580
C          1.62466        0.48981       -0.07673
S          0.23468       -0.52460       -0.20024
C          2.96235       -0.07182       -0.20173
S          4.15676        0.67756       -1.20039
C          5.32835       -0.52660       -0.83923
H          6.32544       -0.48807       -1.25215
C          4.81539       -1.45921        0.00403
F          5.48742       -2.50519        0.46360
C          3.46017       -1.22162        0.38196
C          2.75589       -2.05751        1.29735
N          2.19791       -2.74279        2.04704
C         -3.09137       -0.42271       -0.13100
C         -2.91068       -1.86289       -0.44156
O         -1.89879       -2.49740       -0.63156
N         -4.20997       -2.37491       -0.48196
H         -4.40238       -3.34827       -0.67264
C         -5.22381       -1.43487       -0.23879
O         -6.40702       -1.66051       -0.23013
C         -4.48060       -0.16580       -0.01268
C         -4.77872        1.12780        0.26131
H         -5.74595        1.59179        0.39734
S         -3.33212        2.06098        0.37942
