54
COMP92_400003.log	Energy: -1667129.1275110
C          0.05631       -0.29101        0.49681
C         -1.29516       -0.84120        0.66534
C         -1.68320       -1.74644        1.62681
O         -0.94557       -2.17809        2.67643
C         -3.01046       -2.22474        1.45986
H         -3.48396       -2.90662        2.15531
C         -3.61845       -1.69711        0.35432
S         -2.57352       -0.60182       -0.48982
C         -4.96027       -1.95606       -0.14458
S         -5.71038       -3.50320        0.10169
C         -7.14462       -2.99622       -0.71890
H         -7.98248       -3.67155       -0.82704
C         -7.03153       -1.71011       -1.16645
O         -7.95771       -0.99097       -1.84887
C         -5.78103       -1.11001       -0.83794
H         -5.53444       -0.08434       -1.08511
C          1.11049       -1.24651        0.45925
C          2.40938       -0.88412        0.22128
C          3.46189       -1.93307        0.18871
O          3.24882       -3.10763        0.39667
N          4.75234       -1.48093       -0.09483
C          5.80699       -2.48080       -0.07409
O          6.44893       -2.73032        0.90268
O          5.91276       -3.02915       -1.27010
C          6.92149       -4.04106       -1.37902
C          5.14400       -0.16929       -0.38299
O          6.29769        0.08183       -0.65468
C          4.06763        0.85281       -0.32606
C          4.37714        2.17093       -0.57405
H          5.40297        2.43712       -0.80431
C          3.36733        3.14535       -0.52199
C          2.06940        2.79294       -0.22305
C          1.04043        3.85845       -0.17054
O          1.25355        5.02082       -0.44103
N         -0.22297        3.43572        0.23396
C         -1.21835        4.47318        0.44550
O         -1.27684        5.13074        1.44173
O         -1.99828        4.54987       -0.61760
C         -3.04884        5.51894       -0.52192
C         -0.63514        2.13065        0.53732
O         -1.75117        1.95585        0.97403
C          0.37653        1.05662        0.32516
C          1.71665        1.44244        0.03019
C          2.73967        0.46889       -0.02597
H         -0.14159       -1.64848        2.75265
H         -8.74554       -1.53124       -1.98071
H          0.88030       -2.29955        0.59078
H          6.84345       -4.41812       -2.39714
H          6.73401       -4.83601       -0.65452
H          7.90622       -3.60420       -1.20041
H          3.58882        4.18971       -0.71357
H         -3.57936        5.46317       -1.47083
H         -2.62669        6.51440       -0.37002
H         -3.71197        5.26853        0.30876
