30
COMP52_300200.log	Energy: -2098271.1161588
C          0.58533        0.24182        0.35022
C         -0.78002       -0.26051        0.42005
C         -1.23063       -1.41856        1.02425
C         -0.39026       -2.30413        1.76719
N          0.27724       -3.03305        2.37286
C         -2.63209       -1.62596        0.87650
H         -3.15736       -2.46253        1.32117
C         -3.23791       -0.63284        0.15827
S         -2.08708        0.55524       -0.36276
C         -4.64897       -0.49186       -0.17571
S         -5.63922       -1.89518       -0.44901
C         -7.02545       -0.93517       -0.74313
H         -7.98006       -1.38949       -0.96833
C         -6.74025        0.40280       -0.65206
C         -7.71726        1.42791       -0.85118
N         -8.50464        2.26311       -1.01110
C         -5.37317        0.65827       -0.32488
H         -4.96669        1.65280       -0.18513
C          1.07433        1.50361        0.59595
Cl         0.11691        2.84645        1.10536
N          2.40684        1.68827        0.44335
C          2.97249        0.57171        0.07326
S          1.91198       -0.77974       -0.11471
C          4.40109        0.44522       -0.16698
S          5.48104        1.78461        0.04791
C          6.77770        0.75994       -0.42368
H          7.79898        1.10708       -0.47603
C          6.29601       -0.48635       -0.69929
Cl         7.27698       -1.81300       -1.20815
N          4.95709       -0.66847       -0.55651
