44
COMP61_300031.log	Energy: -1449885.7078456
C         -3.14443        0.52213       -0.04913
C         -1.69938        0.37404       -0.00433
C         -0.72723        1.35139       -0.01675
C         -1.03390        2.72838       -0.22408
N         -1.34414        3.82119       -0.46135
C          0.61554        0.81242        0.02869
C          1.84756        1.48368        0.07495
C          1.91180        2.94667        0.37985
O          1.21099        3.48360        1.20120
O          2.86304        3.56546       -0.32426
C          3.01692        4.96368       -0.04754
C          3.00813        0.71870       -0.02239
S          4.64664        1.33915       -0.07419
C          5.27856       -0.26001       -0.16154
H          6.34440       -0.41497       -0.26576
C          4.33356       -1.23791       -0.14928
C          4.70381       -2.59905       -0.38083
N          5.06567       -3.66977       -0.63727
C          2.98675       -0.70097       -0.04056
C          1.75989       -1.37017        0.04271
C          1.70136       -2.84231        0.30520
O          2.46082       -3.42044        1.04124
O          0.67353       -3.41222       -0.32762
C          0.46010       -4.80136       -0.04719
C          0.59276       -0.60292        0.01533
S         -1.03310       -1.23454        0.02247
C         -4.10705       -0.45717       -0.01563
C         -4.31175       -1.90677        0.06450
O         -3.55123       -2.85253        0.12599
N         -5.72315       -2.01973        0.05422
H         -6.18407       -2.91490        0.10403
C         -6.34628       -0.79245       -0.02069
H         -7.42481       -0.71414       -0.03456
C         -5.39373        0.17251       -0.06600
C         -5.20350        1.62237       -0.13870
O         -5.97427        2.55191       -0.20418
N         -3.79094        1.74597       -0.11579
H         -3.34362        2.64962       -0.18544
H          3.81662        5.30162       -0.70424
H          3.28234        5.11584        1.00069
H          2.08507        5.48925       -0.26525
H         -0.44277       -5.06815       -0.59330
H          0.32172       -4.95259        1.02514
H          1.31669       -5.38463       -0.39093
