32
COMP51_200410.log	Energy: -2124750.4630663
C         -1.39613       -0.46744        0.25289
C          0.04129       -0.28070        0.15598
C          0.80055        0.81986        0.40252
Cl         0.16161        2.33247        0.94803
C          2.21840        0.63323        0.21351
C          3.24745        1.55586        0.38962
H          3.03038        2.57491        0.69232
C          4.54521        1.12127        0.16327
S          6.00393        2.07767        0.31106
C          6.98466        0.71686       -0.14864
H          8.05929        0.81679       -0.21170
C          6.25638       -0.39194       -0.39812
Cl         6.94311       -1.90816       -0.87927
C          4.83439       -0.20902       -0.23075
C          3.80454       -1.13235       -0.40586
H          4.02047       -2.15187       -0.70811
C          2.50902       -0.69486       -0.18284
S          1.04781       -1.63921       -0.36038
C         -2.06325       -1.52060        0.84848
O         -1.52508       -2.56368        1.49975
N         -3.41697       -1.49544        0.77136
C         -3.81200       -0.43612        0.11902
S         -2.56443        0.61675       -0.44678
C         -5.21282       -0.13000       -0.12188
S         -6.47077       -1.17759        0.44379
C         -7.61903       -0.09204       -0.24525
H         -8.68209       -0.27461       -0.17838
C         -6.96774        0.95686       -0.83927
O         -7.50959        2.00929       -1.48339
N         -5.60962        0.93132       -0.76779
H         -0.56516       -2.45481        1.55547
H         -8.47008        1.92508       -1.47351
