40
COMP67_040000.log	Energy: -1192701.8507892
C          2.60922        0.59967       -0.14813
C          1.25032        0.15629       -0.15842
C          0.77897       -1.12305       -0.49892
O          1.47884       -2.17030       -0.90556
C         -0.63892       -1.21357       -0.46024
H         -1.14688       -2.14029       -0.69539
C         -1.25737       -0.05649       -0.07151
S         -0.10336        1.19537        0.24621
C         -2.66960        0.23075        0.11288
C         -3.66232       -0.60997       -0.22794
C         -5.07807       -0.35060       -0.03983
C         -5.70748        0.69464        0.59162
H         -5.18046        1.51003        1.07671
C         -7.12638        0.58874        0.55318
O         -7.99165        1.48127        1.09882
C         -7.56282       -0.53113       -0.10069
H         -8.58647       -0.83502       -0.26147
S         -6.24128       -1.46848       -0.67656
C          3.76481       -0.15904       -0.00144
C          4.22172       -1.47336        0.33844
O          3.62735       -2.55525        0.47707
N          5.60934       -1.33262        0.49311
C          6.48078       -2.44171        0.81419
C          6.00023       -0.01886        0.30152
H          7.03409        0.27097        0.42895
C          4.89961        0.70954       -0.01302
C          4.42765        2.06995       -0.21629
O          4.99904        3.13124       -0.33728
N          3.00375        1.92832       -0.27635
C          2.19906        3.07326       -0.65351
H          2.31555       -2.33422       -0.37230
H         -2.91074        1.19806        0.54824
H         -3.41107       -1.56230       -0.69053
H         -7.49229        2.19506        1.51072
H          5.85939       -3.33680        0.86852
H          6.97111       -2.28536        1.77983
H          7.23955       -2.57554        0.03750
H          2.90140        3.85960       -0.93567
H          1.59051        3.43606        0.17955
H          1.55400        2.83366       -1.50226
