52
COMP92_340002.log	Energy: -1640576.6077033
C          0.55410       -0.05616        0.21677
C         -0.88955        0.02326        0.52202
C         -1.47140        0.53413        1.65562
C         -0.77006        1.15990        2.72420
N         -0.25408        1.67843        3.62504
C         -2.89461        0.41141        1.64903
O         -3.70933        0.83216        2.64015
C         -3.38078       -0.20437        0.52257
S         -2.06451       -0.63455       -0.54017
C         -4.76566       -0.47429        0.19557
S         -6.09223       -0.00027        1.22813
C         -7.25332       -0.64330        0.15538
H         -8.30918       -0.58586        0.37861
C         -6.67262       -1.20249       -0.95266
C         -7.35322       -1.82459       -2.03864
N         -7.82343       -2.34640       -2.96234
C         -5.24414       -1.10436       -0.92659
O         -4.42016       -1.57048       -1.89001
C          1.14702       -1.34099        0.25141
C          2.49157       -1.51130        0.04173
C          3.06155       -2.88651        0.09350
O          2.40210       -3.87473        0.31886
N          4.44083       -2.95787       -0.12994
O          4.96539       -4.21743       -0.22769
C          5.42739       -4.67923        1.04372
C          5.33465       -1.90295       -0.35681
O          6.51969       -2.09875       -0.49744
C          4.71402       -0.55004       -0.39704
C          5.51284        0.54569       -0.62718
H          6.57770        0.39944       -0.77171
C          4.94442        1.83125       -0.67495
C          3.59158        2.00479       -0.49193
C          3.04028        3.38313       -0.55495
O          3.71242        4.36740       -0.76240
N          1.65756        3.46150       -0.37910
O          1.12578        4.72123       -0.35521
C          0.77440        5.15791       -1.67067
C          0.73984        2.41560       -0.21439
O         -0.44829        2.63802       -0.22978
C          1.34400        1.05493       -0.05597
C          2.74261        0.89493       -0.25041
C          3.32070       -0.39402       -0.20206
H         -3.20528        1.32867        3.29996
H         -4.93297       -1.98247       -2.59971
H          0.53451       -2.21176        0.46238
H          5.82109       -5.67657        0.84657
H          4.59879       -4.73966        1.75532
H          6.22529       -4.03216        1.41925
H          5.55928        2.70643       -0.85509
H          0.35851        6.15502       -1.52459
H          0.01643        4.49871       -2.10306
H          1.66304        5.21433       -2.30608
