64
COMP83_000033.log	Energy: -1266076.5548681
C          2.23897       -0.15999        0.12033
C          3.71250       -0.32439        0.23056
C          4.32422       -1.34333       -0.50426
C          5.70535       -1.52107       -0.48405
C          6.37554       -2.61143       -1.25146
O          7.57082       -2.79803       -1.26308
O          5.50334       -3.37149       -1.93058
C          6.08070       -4.43651       -2.68406
C          6.50802       -0.65736        0.25977
H          7.58317       -0.79938        0.25699
C          5.91777        0.36533        0.98427
C          4.53107        0.52550        0.99737
C          4.01008        1.63890        1.85663
O          4.55898        2.71172        1.95716
O          2.90138        1.29872        2.51818
C          2.24167        2.36820        3.19882
C          1.40029       -1.27363        0.21164
C          0.02110       -1.15475        0.10186
C         -0.55411        0.10440       -0.08291
C         -1.92324        0.56408       -0.33605
C         -1.80991        2.04858       -0.59932
O         -2.69405        2.85083       -0.76506
N         -0.43963        2.37441       -0.48325
C          0.10551        3.66521       -0.46047
O          1.17322        3.92332        0.04682
O         -0.67641        4.54021       -1.07386
C         -0.21172        5.89166       -1.03927
C          0.30924        1.21103       -0.19507
C          1.68361        1.10231       -0.11477
C         -3.12979       -0.07398       -0.29480
C         -3.32064       -1.38500        0.42885
O         -2.49923       -2.03031        1.03015
N         -4.70194       -1.68558        0.36596
C         -5.34893       -2.77739        0.96012
O         -6.55093       -2.90719        0.97517
O         -4.48949       -3.64038        1.48467
C         -5.08874       -4.76539        2.12921
C         -5.37452       -0.68979       -0.38558
C         -6.71126       -0.65745       -0.75239
C         -7.13203        0.38788       -1.57146
H         -8.17606        0.43594       -1.86582
C         -6.23831        1.35493       -2.02200
C         -4.90311        1.31636       -1.63938
C         -4.45722        0.29897       -0.79115
H          3.71440       -1.99306       -1.12214
H          5.24298       -4.94777       -3.15712
H          6.62713       -5.11766       -2.02740
H          6.76714       -4.04435       -3.43843
H          6.52391        1.05284        1.56445
H          1.39098        1.90936        3.70147
H          1.90405        3.11180        2.47176
H          2.91264        2.83742        3.92159
H          1.83182       -2.25198        0.39841
H         -0.60025       -2.03189        0.18711
H         -0.97418        6.46675       -1.56200
H          0.75285        5.97708       -1.54419
H         -0.11043        6.23473       -0.00732
H          2.31110        1.97698       -0.22233
H         -4.25366       -5.34280        2.52271
H         -5.66405       -5.35687        1.41337
H         -5.74688       -4.43892        2.93738
H         -7.39725       -1.41888       -0.41313
H         -6.58209        2.15122       -2.67409
H         -4.21999        2.07719       -1.98269
