61
COMP85_000002.log	Energy: -1041469.7480921
C          1.31752        0.40814       -0.24618
C          2.80038        0.43748       -0.24000
C          3.51631       -0.70932        0.10466
C          4.90779       -0.64773        0.10570
N          5.82665       -1.63100        0.42928
C          5.51839       -2.99101        0.79268
C          7.10133       -1.11712        0.25846
C          8.33579       -1.74371        0.43282
C          9.47880       -0.98946        0.20397
H         10.45218       -1.45354        0.33234
C          9.40334        0.35358       -0.19282
C          8.17245        0.96839       -0.37209
C          7.00877        0.23175       -0.14922
C          5.59770        0.53358       -0.24537
C          4.87094        1.67259       -0.58919
C          3.48648        1.61994       -0.58197
C          0.62162       -0.70505       -0.73100
C         -0.77014       -0.76689       -0.73550
C         -1.51221        0.30823       -0.24434
C         -2.94937        0.62800       -0.11223
C         -2.99071        2.08462        0.33502
O         -3.91467        2.86401        0.44294
N         -1.68368        2.40632        0.61902
O         -1.29091        3.66387        0.96963
C         -1.24847        4.52254       -0.17525
C         -0.78650        1.42742        0.20771
C          0.58847        1.50642        0.23270
C         -4.06757       -0.14327       -0.21544
C         -4.00948       -1.65244       -0.40349
O         -3.09788       -2.38852       -0.71570
N         -5.27581       -2.10338       -0.08739
O         -5.68011       -3.36418       -0.43978
C         -5.38990       -4.28494        0.61133
C         -6.19670       -1.06192       -0.00869
C         -7.56827       -1.17393        0.09532
C         -8.29909        0.01258        0.14987
H         -9.38107       -0.03198        0.23080
C         -7.65624        1.24570        0.09183
C         -6.26808        1.33393       -0.01567
C         -5.50611        0.16476       -0.05735
H          2.98821       -1.61513        0.38566
H          4.54263       -3.02730        1.28212
H          6.26124       -3.35686        1.50646
H          5.50425       -3.65656       -0.07895
H          8.40960       -2.78572        0.72798
H         10.31799        0.91229       -0.36430
H          8.11327        2.00741       -0.68384
H          5.38296        2.58902       -0.86816
H          2.91551        2.49595       -0.87417
H          1.18017       -1.53777       -1.14682
H         -1.27255       -1.63735       -1.12731
H         -0.87945        5.47599        0.20465
H         -2.24934        4.64730       -0.59691
H         -0.55786        4.12649       -0.92833
H          1.07920        2.38325        0.64050
H         -5.78701       -5.23989        0.26350
H         -5.88831       -3.98427        1.53910
H         -4.31026       -4.36204        0.76531
H         -8.04334       -2.14780        0.11432
H         -8.23960        2.16020        0.12416
H         -5.78351        2.29602       -0.06904
