34
COMP72_420001.log	Energy: -2198229.6296191
C         -1.23023        1.11947       -0.28847
C          0.07370        0.49168       -0.41680
C          0.48477       -0.53703       -1.24400
O         -0.27343       -1.27523       -2.05041
C          1.90510       -0.72441       -1.20003
Cl         2.68007       -1.95790       -2.11896
C          2.55758        0.13229       -0.36190
S          1.43913        1.20319        0.41207
C          3.98634        0.18587       -0.05799
S          5.11052        0.93890       -1.14143
C          6.44271        0.57531       -0.10651
H          7.44756        0.86545       -0.38198
C          6.04683       -0.08924        1.01703
O          6.81023       -0.53146        2.03974
C          4.63257       -0.30893        1.04013
Cl         3.85529       -1.14089        2.33507
C         -2.52132        0.62039       -0.17125
C         -2.92113       -0.79206       -0.10784
O         -2.16045       -1.73970       -0.30756
C         -4.34010       -1.03642        0.21737
C         -4.88492       -2.28000        0.37729
H         -4.37162       -3.22946        0.31232
S         -6.56640       -2.18716        0.70763
C         -6.56098       -0.47044        0.62410
H         -7.46265        0.10776        0.77243
C         -5.31112        0.00826        0.35856
C         -4.95061        1.43467        0.22339
O         -5.75779        2.34063        0.32032
C         -3.50321        1.66849       -0.01093
C         -2.96189        2.91566       -0.02231
H         -3.49410        3.84979        0.09500
S         -1.26374        2.86357       -0.23012
H         -1.07974       -1.52252       -1.53804
H          7.73446       -0.32261        1.86032
