59
COMP66_000033.log	Energy: -1193590.6176948
C          1.79268        0.76905       -0.40429
C          0.55582        0.02728       -0.64540
C         -0.64392        0.41408       -0.02702
C         -1.76830       -0.35637       -0.23445
C         -3.15332       -0.17785        0.37021
C         -2.99724       -0.23538        1.89474
O         -2.68077        0.72708        2.55175
O         -3.17440       -1.46058        2.38043
C         -2.92321       -1.60508        3.78095
C         -3.78036        1.17508        0.02321
O         -3.29645        2.00875       -0.69878
O         -4.96697        1.30213        0.62372
C         -5.64055        2.54293        0.39954
C         -3.92297       -1.33604       -0.25275
C         -5.25527       -1.68229       -0.09417
C         -5.73709       -2.80199       -0.77085
H         -6.77843       -3.08786       -0.65861
C         -4.89661       -3.55888       -1.58772
C         -3.55774       -3.21075       -1.74534
C         -3.07639       -2.09257       -1.07366
C         -1.73680       -1.49537       -1.04893
C         -0.54912       -1.88413       -1.65678
C          0.59506       -1.12497       -1.44348
C          3.06175        0.29174       -0.25817
C          3.81365       -0.95882       -0.25291
O          3.51666       -2.08517       -0.56929
N          5.12521       -0.52692        0.21282
C          6.29105       -1.28172        0.39906
O          7.33095       -0.78090        0.75792
O          6.09504       -2.56588        0.14268
C          7.25017       -3.39176        0.30367
C          5.13793        0.84972        0.46899
H          6.03702        1.30615        0.85577
C          3.92368        1.35265        0.17896
C          3.14411        2.58789        0.26750
O          3.44892        3.72241        0.52179
N          1.81567        2.14411       -0.10725
C          0.82168        3.09289       -0.46301
O          0.53370        4.03910        0.21559
O          0.30322        2.78395       -1.64869
C         -0.79923        3.60241       -2.05983
H         -0.68919        1.27810        0.62951
H         -3.11893       -2.65314        4.00251
H         -3.58661       -0.95652        4.35712
H         -1.88509       -1.35060        4.00643
H         -6.58104        2.46665        0.94329
H         -5.82268        2.69027       -0.66721
H         -5.04029        3.37046        0.78360
H         -5.90701       -1.09386        0.54234
H         -5.29080       -4.42830       -2.10495
H         -2.90550       -3.80217       -2.38120
H         -0.50338       -2.77092       -2.28119
H          1.53497       -1.43226       -1.88746
H          6.90935       -4.40253        0.08553
H          7.63117       -3.32322        1.32491
H          8.03380       -3.08975       -0.39483
H         -1.11828        3.18951       -3.01533
H         -0.47233        4.63832       -2.17165
H         -1.60872        3.53371       -1.33307
