32
COMP57_000000.log	Energy: -1454327.3948545
C         -1.69351       -0.14144       -0.11059
C         -0.28301        0.19436       -0.06223
C          0.30115        1.43643       -0.10569
H         -0.26827        2.35518       -0.19483
C          1.71433        1.39655       -0.03393
H          2.33582        2.28435       -0.04072
C          2.22117        0.12228        0.05535
S          0.92867       -1.04137        0.07412
C          3.59781       -0.33778        0.13066
C          4.67613        0.44510       -0.04876
C          6.05415       -0.00505        0.06864
C          6.55873       -1.18423        0.56098
H          5.93514       -1.96951        0.97274
C          7.97626       -1.25996        0.49633
H          8.55145       -2.11177        0.83946
C          8.54110       -0.13744       -0.03634
H          9.58993        0.07022       -0.19647
S          7.34874        1.02519       -0.46948
C         -2.28325       -1.34604       -0.40138
H         -1.74250       -2.24938       -0.65949
N         -3.64640       -1.37553       -0.37232
C         -4.12395       -0.20296       -0.06543
S         -2.93215        1.02944        0.22587
C         -5.54328        0.09446        0.03560
S         -6.74300       -1.13428       -0.23936
C         -7.95732        0.04608        0.07169
H         -9.00896       -0.19937        0.03089
C         -7.38267        1.24915        0.35345
H         -7.92237        2.15901        0.58484
N         -6.01409        1.27311        0.33214
H          3.74169       -1.39556        0.34097
H          4.53219        1.49291       -0.30482
