34
COMP72_320001.log	Energy: -2219574.5473395
C          1.33127        1.24486        0.13481
C          0.05456        0.54395        0.25687
C         -0.28560       -0.41017        1.18813
C          0.61030       -0.86903        2.19805
N          1.34780       -1.22147        3.01902
C         -1.62911       -0.86876        1.02965
Cl        -2.33403       -2.05159        2.06314
C         -2.29465       -0.26205        0.00024
S         -1.26153        0.87748       -0.80213
C         -3.66892       -0.48332       -0.44187
S         -4.11890       -1.91629       -1.31603
C         -5.74818       -1.41735       -1.42825
H         -6.48752       -2.03230       -1.92232
C         -5.95876       -0.20165       -0.83249
C         -7.23026        0.44556       -0.78240
N         -8.26671        0.96233       -0.74959
C         -4.75429        0.32996       -0.26639
Cl        -4.70220        1.83628        0.56638
C          2.59004        0.72722       -0.06269
C          2.91616       -0.70608       -0.31867
O          2.07237       -1.57737       -0.41208
C          4.36297       -0.97764       -0.47382
C          4.89117       -2.22347       -0.65919
H          4.34940       -3.15774       -0.71344
S          6.60163       -2.16453       -0.79509
C          6.62898       -0.45751       -0.60835
H          7.55521        0.10048       -0.62462
C          5.37001        0.04454       -0.44365
C          5.04842        1.47534       -0.25766
O          5.88572        2.35814       -0.25573
C          3.59915        1.74786       -0.07001
C          3.08907        3.00108        0.10866
H          3.64752        3.92707        0.13556
S          1.39037        2.97150        0.30409
