37
COMP25_000020.log	Energy: -859134.6283298
C         -2.24488       -1.10089        0.19764
C         -0.76979       -1.10128        0.06776
C         -0.02377       -0.00497        0.49797
C          1.35546       -0.06838        0.35363
N          2.30920        0.86773        0.69877
O          2.01971        2.15150        1.06963
C          1.71767        2.95065       -0.07977
C          3.56607        0.43925        0.31896
C          4.79401        1.08581        0.43066
C          5.91290        0.39624       -0.01576
H          6.88847        0.86767        0.05595
C          5.81130       -0.89755       -0.55068
C          4.58003       -1.52950       -0.65550
C          3.43515       -0.85755       -0.22424
C          2.02105       -1.18067       -0.20315
C          1.25990       -2.27528       -0.61352
C         -0.11899       -2.22675       -0.48057
C         -3.03333        0.06642       -0.09803
N         -2.57358        1.25020       -0.51031
S         -3.87188        2.20947       -0.71275
N         -5.06288        1.18290       -0.29723
C         -4.47164        0.02993        0.02150
C         -5.13625       -1.15902        0.43730
H         -6.21639       -1.16889        0.52693
C         -4.36439       -2.24793        0.71044
H         -4.83103       -3.17251        1.03610
C         -2.93976       -2.21513        0.59272
H         -2.38484       -3.11260        0.84980
H         -0.49721        0.86801        0.92995
H          1.54271        3.95381        0.31150
H          0.81788        2.58058       -0.58266
H          2.56297        2.95823       -0.77607
H          4.86352        2.08006        0.85841
H          6.70875       -1.40776       -0.88590
H          4.50554       -2.52943       -1.07329
H          1.73678       -3.14749       -1.05089
H         -0.71835       -3.05940       -0.83562
