46
COMP71_200000.log	Energy: -2250345.8346301
C          1.27998       -1.61155       -0.33871
C         -0.11657       -1.18062       -0.24175
C         -0.84435       -1.00095        0.88662
Cl        -0.12827       -1.29114        2.44159
C         -2.20064       -0.53618        0.66317
C         -3.22358       -0.24055        1.57873
C         -3.07196       -0.36654        3.07358
C         -4.42597        0.19175        1.02245
S         -5.83973        0.62216        1.97239
C         -6.73322        0.99438        0.53960
H         -7.75637        1.33730        0.60490
C         -6.02010        0.80866       -0.59067
Cl        -6.74341        1.12484       -2.14218
C         -4.66174        0.34018       -0.37099
C         -3.63922        0.04317       -1.28589
C         -3.79208        0.17378       -2.78027
C         -2.43586       -0.38632       -0.72986
S         -1.02431       -0.80759       -1.67928
C          2.41849       -0.84816       -0.27379
C          2.45308        0.62909       -0.10018
O          1.43977        1.30450       -0.02210
C          3.81235        1.20582       -0.03592
C          4.06509        2.54372        0.13028
C          3.09704        3.67505        0.28095
S          5.77269        2.82173        0.15224
C          6.16277        1.15025       -0.06307
C          7.58476        0.68930       -0.13584
C          5.01125        0.41057       -0.14666
C          4.97764       -1.05246       -0.33354
O          5.97817       -1.74559       -0.43418
C          3.61279       -1.63177       -0.38770
C          3.35845       -2.96366       -0.54402
H          4.09217       -3.75102       -0.65091
S          1.67714       -3.28743       -0.54896
H         -2.81684       -1.38929        3.36287
H         -3.99701       -0.09986        3.59036
H         -2.28269        0.28984        3.44941
H         -4.59627       -0.46389       -3.15647
H         -2.87437       -0.11210       -3.30013
H         -4.02437        1.20291       -3.06690
H          2.43330        3.72476       -0.58655
H          3.61434        4.63192        0.38987
H          2.45856        3.51453        1.15409
H          8.28272        1.52344       -0.02596
H          7.77336        0.19218       -1.09149
H          7.78542       -0.04840        0.64594
