54
COMP92_240003.log	Energy: -2243908.8447436
C          0.47689       -0.10922        0.12425
C         -0.95871       -0.35610        0.36203
C         -1.68309       -0.11327        1.48979
Cl        -1.06028        0.65533        2.91369
C         -3.04130       -0.55258        1.42261
O         -3.93233       -0.44891        2.42381
C         -3.33611       -1.13754        0.21866
S         -1.93979       -1.13975       -0.82329
C         -4.61975       -1.65950       -0.21508
S         -4.80390       -3.27887       -0.83694
C         -6.49278       -3.07407       -1.07083
H         -7.10599       -3.86236       -1.48264
C         -6.88960       -1.83604       -0.67598
Cl        -8.52229       -1.24550       -0.75301
C         -5.82691       -1.00934       -0.18838
O         -5.96862        0.26114        0.22748
C          1.31733       -1.24771        0.05993
C          2.67319       -1.12682       -0.10264
C          3.51155       -2.35320       -0.14841
O          3.06814       -3.47635       -0.05236
N          4.88227       -2.13864       -0.31436
C          5.71634       -3.32539       -0.40813
O          5.98263       -3.85517       -1.44572
O          6.09956       -3.68438        0.80296
C          6.93193       -4.84957        0.84980
C          5.54080       -0.90820       -0.39861
O          6.74696       -0.86122       -0.50419
C          4.66960        0.29461       -0.35111
C          5.23990        1.54286       -0.44595
H          6.31548        1.62487       -0.55804
C          4.42725        2.68882       -0.39768
C          3.06292        2.57123       -0.25665
C          2.24456        3.80690       -0.21035
O          2.70457        4.92670       -0.27796
N          0.87301        3.60365       -0.08772
C          0.04324        4.79723       -0.04678
O         -0.29495        5.32128        0.97261
O         -0.24489        5.17004       -1.27982
C         -1.06141        6.34286       -1.37698
C          0.18589        2.38410       -0.04899
O         -1.02408        2.38906       -0.06692
C          1.03658        1.15668       -0.00659
C          2.44477        1.29844       -0.15628
C          3.26892        0.15093       -0.20368
H         -3.54778        0.08122        3.13572
H         -6.90225        0.50848        0.17288
H          0.88432       -2.23786        0.15860
H          7.12745       -5.02152        1.90666
H          7.86203       -4.66546        0.30805
H          6.41068       -5.70095        0.40764
H          4.85901        3.68117       -0.46949
H         -1.19969        6.51082       -2.44346
H         -0.55483        7.19137       -0.91244
H         -2.02049        6.17189       -0.88372
