34
COMP57_310000.log	Energy: -1694549.5500428
C         -2.43794       -0.25396       -0.00423
C         -1.04815        0.15212       -0.00929
C         -0.52441        1.41439       -0.02020
F         -1.27026        2.51507       -0.02953
C          0.89552        1.48649       -0.02206
C          1.59090        2.72802       -0.03664
N          2.16642        3.73489       -0.04753
C          1.47844        0.22995       -0.01163
S          0.25459       -0.99731       -0.00087
C          2.86366       -0.19725       -0.00887
C          3.93421        0.62171        0.01509
C          5.32163        0.19665        0.01715
C          5.90498       -1.06090       -0.00434
C          5.20821       -2.30105       -0.03518
N          4.63177       -3.30736       -0.05947
C          7.32995       -0.98822        0.00918
F          8.07465       -2.08628       -0.00768
C          7.82729        0.27436        0.03982
H          8.86434        0.57420        0.05501
S          6.54589        1.42100        0.05317
C         -2.94110       -1.53178        0.00218
H         -2.34018       -2.43465        0.00338
N         -4.29747       -1.64555        0.00717
C         -4.85374       -0.46615        0.00464
S         -3.75632        0.87984       -0.00405
C         -6.29081       -0.24602        0.00862
S         -7.41318       -1.57347        0.01760
C         -8.69727       -0.42690        0.01765
H         -9.73234       -0.73751        0.02257
C         -8.19674        0.84121        0.01107
H         -8.79141        1.74615        0.00973
N         -6.83232        0.93963        0.00600
H          3.00953       -1.27316       -0.02697
H          3.78827        1.69756        0.03641
