31
COMP59_000410.log	Energy: -1524047.1621999
C         -0.53394       -0.29359        0.22675
C          0.88591        0.01526        0.23870
C          1.51739        1.10687        0.78443
C          2.91881        1.07707        0.58630
C          3.34128       -0.03971       -0.09878
S          2.03595       -1.05842       -0.55500
C          4.78161       -0.00491       -0.22086
C          5.25220        1.13942        0.38258
C          4.10443        1.93918        0.95465
H          4.03618        2.93817        0.50736
H          4.19484        2.07441        2.03904
C          6.66473        1.25891        0.30228
C          7.22358        0.20134       -0.35873
H          8.27040        0.02579       -0.56492
S          6.04412       -0.95451       -0.89697
C         -1.15559       -1.49245        0.50819
O         -0.56534       -2.64981        0.85600
N         -2.51091       -1.50293        0.43358
C         -2.95572       -0.32167        0.10298
S         -1.74911        0.89146       -0.15520
C         -4.36926       -0.01538       -0.04040
S         -5.57921       -1.23211        0.19974
C         -6.77822       -0.04163       -0.14931
H         -7.83264       -0.27830       -0.14120
C         -6.17441        1.15857       -0.41453
O         -6.76421        2.32980       -0.72862
N         -4.81517        1.16983       -0.35274
H          0.97822        1.87980        1.32082
H          7.24557        2.07822        0.70932
H          0.38189       -2.49871        0.98442
H         -7.72028        2.20579       -0.74632
