42
COMP77_020000.log	Energy: -2201746.9886729
C         -1.54264       -1.56880        0.19510
C         -0.19478       -1.07745        0.46591
C          0.25933       -0.38349        1.55583
Cl        -0.74283        0.05770        2.89458
C          1.64218       -0.07596        1.51806
H          2.15702        0.43765        2.32034
C          2.25144       -0.53634        0.37928
S          1.11157       -1.35878       -0.63941
C          3.63977       -0.40572       -0.03682
C          4.48536        0.51331        0.45834
C          5.89212        0.61827        0.10194
C          6.70588       -0.28735       -0.52943
H          6.39477       -1.27746       -0.83879
C          8.02504        0.20980       -0.70688
Cl         9.27609       -0.71674       -1.47544
C          8.21936        1.46471       -0.21215
H          9.12890        2.04759       -0.22074
S          6.76886        2.07167        0.48259
C         -2.70479       -0.86619       -0.01942
C         -2.82129        0.61541       -0.11055
O         -1.86047        1.36084       -0.01283
C         -4.19481        1.11128       -0.34226
C         -4.51861        2.44165       -0.42333
C         -3.62741        3.63877       -0.31212
S         -6.21890        2.61816       -0.69181
C         -6.51013        0.91334       -0.70117
C         -7.88565        0.36099       -0.90696
C         -5.33256        0.23977       -0.50156
C         -5.21338       -1.22873       -0.45680
O         -6.15616       -1.99056       -0.60793
C         -3.83669       -1.72570       -0.21054
C         -3.51618       -3.05070       -0.15036
H         -4.19629       -3.88276       -0.27188
S         -1.84805       -3.28012        0.15378
H          3.98756       -1.09793       -0.80098
H          4.11171        1.24748        1.16953
H         -3.09370        3.62608        0.64214
H         -4.19572        4.56944       -0.39092
H         -2.86564        3.61954       -1.09625
H         -8.62558        1.15843       -1.01497
H         -8.16890       -0.27594       -0.06443
H         -7.91141       -0.27072       -1.79941
