46
COMP82_420001.log	Energy: -1912927.1090625
C         -0.05062       -0.18146       -0.19183
C         -1.51058       -0.26037       -0.31999
C         -2.23769       -1.27208       -0.89548
O         -1.75571       -2.38850       -1.48350
C         -3.64452       -1.02832       -0.86549
Cl        -4.77148       -2.12194       -1.57446
C         -3.97976        0.15610       -0.26907
S         -2.55862        0.99643        0.26241
C         -5.30739        0.72111       -0.05746
S         -5.78478        2.20253       -0.82662
C         -7.34749        2.15056       -0.09535
H         -8.07009        2.93194       -0.28726
C         -7.50049        1.04863        0.69360
O         -8.58142        0.68381        1.41651
C         -6.32399        0.23317        0.71632
Cl        -6.22741       -1.19452        1.67604
C          0.63872        1.00872       -0.44850
C          2.02254        1.09327       -0.33111
C          2.76407       -0.02936        0.04417
C          4.20106       -0.33265        0.21548
C          4.24132       -1.80651        0.59784
O          5.17946       -2.52073        0.88727
N          2.93529       -2.23454        0.61557
H          2.69164       -3.17520        0.88310
C          2.05015       -1.22274        0.28333
C          0.67528       -1.32418        0.18395
C          5.32075        0.43966        0.11195
C          5.27115        1.95869       -0.02417
O          4.32045        2.71502       -0.05253
N          6.57397        2.38145       -0.06551
H          6.81048        3.35831       -0.13710
C          7.47124        1.32427        0.00082
C          8.85051        1.39818       -0.06373
C          9.56418        0.20200       -0.01417
H         10.64875        0.22597       -0.06185
C          8.89777       -1.01512        0.08849
C          7.50642       -1.07194        0.15668
C          6.76237        0.11035        0.12427
H         -0.80056       -2.28830       -1.60028
H         -9.27929        1.33842        1.29627
H          0.08345        1.88771       -0.76088
H          2.52231        2.02922       -0.52374
H          0.16639       -2.24839        0.44309
H          9.35508        2.35456       -0.15756
H          9.46429       -1.94010        0.12058
H          7.00613       -2.02256        0.25057
