44
COMP77_120002.log	Energy: -2420585.8986907
C         -1.32883       -1.74743        0.26149
C         -0.01024       -1.18015        0.52902
C          0.40503       -0.47114        1.62240
Cl        -0.57860       -0.07033        2.97466
C          1.76997       -0.09355        1.54184
F          2.35689        0.60147        2.51611
C          2.41644       -0.50986        0.40846
S          1.29582       -1.38331       -0.59207
C          3.78971       -0.32832       -0.02278
C          4.73071        0.34660        0.66461
C          6.10431        0.52694        0.23064
C          6.74951        0.10721       -0.90221
F          6.16815       -0.59799       -1.87261
C          8.11863        0.48542       -0.97633
Cl         9.12594        0.06577       -2.31418
C          8.51902        1.19984        0.11072
H          9.50005        1.60792        0.30463
S          7.22639        1.41131        1.22553
C         -2.52866       -1.11200        0.04539
C         -2.72418        0.36480       -0.03521
O         -1.80504        1.15532        0.08369
C         -4.11996        0.77145       -0.28440
C         -4.53279        2.07246       -0.37053
O         -3.76146        3.14735       -0.25362
C         -4.36025        4.42904       -0.32677
S         -6.26497        2.19674       -0.67163
C         -6.41102        0.44180       -0.67812
O         -7.57673       -0.16904       -0.85937
C         -8.72082        0.61484       -1.14923
C         -5.20871       -0.17175       -0.46287
C         -5.01082       -1.62859       -0.41966
O         -5.89682       -2.45069       -0.58027
C         -3.60466       -2.03578       -0.15978
C         -3.20634       -3.33986       -0.10507
H         -3.83503       -4.20988       -0.23664
S         -1.52971       -3.47277        0.20800
H          4.04753       -0.78258       -0.97416
H          4.47365        0.80202        1.61547
H         -3.54946        5.14335       -0.18996
H         -5.10382        4.56181        0.46857
H         -4.82741        4.58913       -1.30623
H         -9.54232       -0.09227       -1.25630
H         -8.58878        1.16967       -2.08582
H         -8.94078        1.31015       -0.32973
