52
COMP92_010003.log	Energy: -1697262.0881236
C          0.04576       -0.27335        0.43662
C         -1.34097       -0.76399        0.58910
C         -1.88295       -1.34891        1.69513
H         -1.37675       -1.45922        2.64573
C         -3.22198       -1.75618        1.46471
F         -3.95858       -2.31485        2.42276
C         -3.69179       -1.52276        0.20283
S         -2.44415       -0.76990       -0.74677
C         -4.99648       -1.86074       -0.33549
S         -5.94230       -0.76891       -1.30568
C         -7.21498       -1.91846       -1.46949
H         -8.09438       -1.67145       -2.04764
C         -6.95357       -3.07896       -0.80714
H         -7.61164       -3.93730       -0.76967
C         -5.68532       -3.03086       -0.17033
F         -5.20300       -4.06424        0.51806
C          1.06080       -1.26165        0.40919
C          2.37908       -0.93056        0.22888
C          3.40341       -2.00704        0.20616
O          3.14843       -3.18285        0.34734
N          4.71926       -1.58096        0.00868
C          5.74455       -2.61074        0.04629
O          6.29371       -2.94667        1.05318
O          5.94125       -3.07552       -1.17336
C          6.94017       -4.09827       -1.27175
C          5.16078       -0.27185       -0.20605
O          6.33451       -0.04189       -0.40016
C          4.10914        0.77700       -0.17269
C          4.46450        2.09326       -0.35778
H          5.50754        2.33801       -0.52644
C          3.47942        3.09520       -0.32443
C          2.15994        2.76985       -0.10330
C          1.15477        3.85925       -0.06935
O          1.41288        5.02573       -0.27372
N         -0.14482        3.45561        0.22938
C         -1.12928        4.51286        0.39607
O         -1.27633        5.11234        1.41928
O         -1.78721        4.67626       -0.73676
C         -2.80862        5.68023       -0.69693
C         -0.61013        2.15337        0.44853
O         -1.76853        1.98400        0.75679
C          0.40039        1.06427        0.30111
C          1.76145        1.42172        0.08586
C          2.75689        0.41949        0.04620
H          0.78947       -2.30590        0.52385
H          7.00360       -4.33874       -2.33143
H          6.63690       -4.97253       -0.69194
H          7.89592       -3.72313       -0.90018
H          3.73872        4.13824       -0.47021
H         -3.25839        5.67390       -1.68811
H         -2.36591        6.65383       -0.47705
H         -3.54824        5.43013        0.06628
