62
COMP91_400003.log	Energy: -1764285.1234418
C          0.44283       -0.03039       -0.01500
C         -1.01631       -0.22617       -0.04589
C         -1.73270       -0.96513        0.84319
O         -1.22727       -1.54343        1.96238
C         -3.13861       -1.09107        0.51190
C         -4.16718       -1.75624        1.19556
C         -3.99923       -2.50727        2.48999
C         -5.42345       -1.69946        0.59524
S         -6.85185       -2.46191        1.26710
C         -7.81571       -1.88271       -0.06342
H         -8.87230       -2.11386       -0.10585
C         -7.10711       -1.15966       -0.96080
O         -7.60463       -0.58861       -2.09008
C         -5.70043       -1.02476       -0.62043
C         -4.67215       -0.35494       -1.30022
C         -4.83898        0.40573       -2.58926
C         -3.41643       -0.41277       -0.70040
S         -1.99693        0.35619       -1.37594
C          1.23982       -1.20596       -0.06652
C          2.60793       -1.14749       -0.13670
C          3.38929       -2.41080       -0.19098
O          2.89190       -3.51357       -0.12477
N          4.77143       -2.25813       -0.32524
C          5.54914       -3.48174       -0.42917
O          5.82305       -3.99405       -1.47339
O          5.87486       -3.89447        0.78194
C          6.64269       -5.10363        0.81844
C          5.48952       -1.05882       -0.36973
O          6.69858       -1.06821       -0.44782
C          4.67529        0.18243       -0.31032
C          5.30498        1.40452       -0.37053
H          6.38461        1.43727       -0.46871
C          4.54636        2.58574       -0.30686
C          3.17665        2.52973       -0.17688
C          2.41780        3.80152       -0.09923
O          2.92736        4.89924       -0.17606
N          1.04627        3.66005        0.09037
C          0.28302        4.88823        0.23636
O         -0.29187        5.41163       -0.67107
O          0.34540        5.29338        1.49187
C         -0.36601        6.50547        1.76784
C          0.32335        2.46901        0.24862
O         -0.83583        2.52234        0.59134
C          1.08210        1.20782        0.00536
C          2.49812        1.28553       -0.11651
C          3.26758        0.10218       -0.18903
H         -0.31888       -1.24197        2.09397
H         -3.00240       -2.39116        2.90875
H         -4.18464       -3.57749        2.33545
H         -4.72853       -2.15473        3.22938
H         -8.54816       -0.78112       -2.14663
H         -5.84316        0.31224       -2.99594
H         -4.12669        0.04197       -3.34016
H         -4.62847        1.47076       -2.43064
H          0.75341       -2.17666       -0.08043
H          6.80877       -5.30737        1.87470
H          7.59149       -4.95923        0.29760
H          6.08459       -5.91606        0.34863
H          5.02336        3.55849       -0.35797
H         -0.19965        6.70278        2.82535
H         -1.42943        6.36820        1.56141
H          0.02714        7.31850        1.15416
