64
COMP81_100030.log	Energy: -1749330.5976333
C          0.41768        0.07487        0.10225
C         -1.04839        0.13620        0.09738
C         -1.92832       -0.88049       -0.07878
F         -1.54203       -2.13342       -0.32783
C         -3.31791       -0.50862       -0.06659
C         -4.45833       -1.31167       -0.20466
C         -4.36996       -2.80369       -0.13764
O         -3.68805       -3.41346        0.64707
O         -5.19323       -3.38156       -1.02374
C         -5.26071       -4.80787       -0.95838
C         -5.69620       -0.67057       -0.27375
S         -7.25254       -1.43682       -0.52611
C         -8.06299        0.09455       -0.40058
H         -9.13254        0.17046       -0.53462
C         -7.21253        1.11712       -0.18987
F         -7.60388        2.38763       -0.14719
C         -5.82602        0.72902       -0.08438
C         -4.69087        1.51864        0.14774
C         -4.81491        2.94772        0.57537
O         -5.61217        3.35087        1.38350
O         -3.88539        3.71538       -0.01079
C         -3.85874        5.07921        0.41689
C         -3.44528        0.89487        0.08851
S         -1.88588        1.66769        0.26709
C          1.18205        1.16622       -0.32422
C          2.57380        1.13371       -0.31601
C          3.24107       -0.00795        0.12636
C          4.65146       -0.43411        0.22057
C          4.58508       -1.86562        0.73329
O          5.48541       -2.63558        1.01139
N          3.25531       -2.16926        0.90363
C          2.78281       -3.43690        1.40324
C          2.44875       -1.10201        0.53434
C          1.06884       -1.08756        0.54228
C          5.82409        0.21099       -0.04014
C          5.90523        1.70826       -0.30429
O          5.02254        2.54691       -0.31019
N          7.23076        2.00835       -0.50155
C          7.71622        3.34142       -0.75484
C          8.02014        0.86761       -0.41572
C          9.38895        0.79985       -0.60503
C          9.99459       -0.45264       -0.50458
H         11.06770       -0.53946       -0.64624
C          9.23519       -1.58509       -0.23125
C          7.85596       -1.49911       -0.03937
C          7.22272       -0.25791       -0.11868
H         -5.97973       -5.10016       -1.72204
H         -5.59559       -5.12867        0.03078
H         -4.28018       -5.24293       -1.16374
H         -3.03870        5.53986       -0.13179
H         -3.68441        5.13845        1.49361
H         -4.80646        5.56732        0.17941
H          0.68728        2.06104       -0.68916
H          3.13411        1.99516       -0.64249
H          3.65619       -4.06336        1.58615
H          2.13056       -3.92112        0.66894
H          2.23029       -3.30046        2.33880
H          0.50426       -1.94799        0.87900
H          6.85719        4.01284       -0.73804
H          8.20332        3.39703       -1.73442
H          8.43079        3.64394        0.01793
H          9.96832        1.68955       -0.82909
H          9.71748       -2.55450       -0.15937
H          7.28203       -2.38395        0.18637
