33
COMP22_330400.log	Energy: -1481721.7378355
C          2.33208       -0.17754       -0.21701
C          0.92831       -0.54871       -0.02755
C          0.42892       -1.67752        0.58599
C          1.24307       -2.66450        1.21807
N          1.90567       -3.45504        1.74555
C         -1.00167       -1.72688        0.58400
C         -1.74304       -2.78726        1.18738
N         -2.34542       -3.65175        1.67028
C         -1.57031       -0.62819       -0.02572
S         -0.35381        0.45675       -0.59249
C         -2.98638       -0.34186       -0.22272
S         -4.08614       -1.58013       -0.72860
C         -5.40849       -0.49865       -0.75001
H         -6.39992       -0.83936       -1.01430
C         -5.04103        0.76992       -0.39416
C         -5.95287        1.86774       -0.32911
N         -6.69905        2.75257       -0.28312
C         -3.64100        0.86559       -0.08880
C         -3.01986        2.07995        0.33287
N         -2.52784        3.07353        0.67006
C          2.81009        1.13533        0.11928
N          2.06999        2.13407        0.58369
S          3.07842        3.39761        0.81151
N          4.48365        2.72113        0.33166
C          4.20188        1.47339       -0.02635
C          5.13323        0.51055       -0.51681
H          6.18176        0.76996       -0.61894
C          4.65186       -0.71477       -0.84844
O          5.38999       -1.74517       -1.33742
C          3.25073       -1.06685       -0.71882
O          2.87390       -2.28585       -1.12454
H          6.32467       -1.50829       -1.37282
H          3.66480       -2.80179       -1.34461
