31
COMP47_120001.log	Energy: -1965422.4290710
C         -3.40232        0.35618       -0.00330
C         -1.98808        0.69171       -0.00224
C         -1.37268        1.92787       -0.00042
Cl        -2.14081        3.47226        0.00188
C          0.03888        1.85000       -0.00017
F          0.79106        2.95081        0.00149
C          0.53969        0.57692       -0.00196
S         -0.76997       -0.55850       -0.00336
C          1.90827        0.09675       -0.00259
C          2.99639        0.89104        0.00500
C          4.36810        0.41928        0.00415
C          4.87675       -0.85278       -0.00392
F          4.12610       -1.95300       -0.01308
C          6.29715       -0.92013       -0.00191
Cl         7.15664       -2.41627       -0.01074
C          6.87374        0.31317        0.00772
H          7.92889        0.54437        0.01141
S          5.68608        1.55650        0.01456
C         -4.01902       -0.87500        0.00138
C         -3.63413       -2.31251        0.00981
O         -2.54598       -2.83995        0.01413
N         -4.85104       -3.00265        0.01182
H         -4.89560       -4.01175        0.01711
C         -5.99141       -2.19024        0.00496
O         -7.13445       -2.57372        0.00510
C         -5.43682       -0.81216       -0.00212
C         -5.93745        0.44568       -0.00988
H         -6.96914        0.76966       -0.01377
S         -4.65297        1.59397       -0.01285
H          2.03220       -0.98152       -0.00985
H          2.86829        1.96886        0.01283
