65
COMP96_000003.log	Energy: -1243441.3111949
C         -0.17728       -0.34624       -0.44476
C          1.21515       -0.85654       -0.54703
C          2.15555       -0.56613        0.44828
C          3.42623       -1.09594        0.35274
C          4.60506       -0.89058        1.29147
C          4.99999        0.59473        1.35517
C          4.30281       -1.42718        2.69997
C          5.67790       -1.72107        0.60095
C          6.99405       -1.92765        0.98585
C          7.81172       -2.73481        0.19428
H          8.84462       -2.90404        0.48381
C          7.31547       -3.32607       -0.96808
C          5.99451       -3.12113       -1.35827
C          5.18161       -2.31631       -0.56717
C          3.77569       -1.92353       -0.72502
C          2.84447       -2.23182       -1.70823
C          1.56188       -1.69996       -1.60686
C         -1.20380       -1.32510       -0.40643
C         -2.52222       -0.98796       -0.25067
C         -3.54828       -2.06143       -0.21229
O         -3.29562       -3.24215       -0.31449
N         -4.86638       -1.62746       -0.04621
C         -5.89367       -2.65410       -0.07070
O         -6.41024       -3.03698       -1.07829
O         -6.13536       -3.06022        1.16240
C         -7.14972       -4.06555        1.27397
C         -5.30709       -0.31227        0.13124
O         -6.48419       -0.07604        0.29782
C         -4.25196        0.73219        0.09383
C         -4.60709        2.05250        0.25235
H         -5.65144        2.30294        0.40321
C         -3.61769        3.04824        0.21870
C         -2.29624        2.71444        0.01751
C         -1.28897        3.80105       -0.00695
O         -1.54308        4.96746        0.20475
N          0.00925        3.39205       -0.30173
C          0.99870        4.44040       -0.47556
O          1.10536        5.08417       -1.47672
O          1.71894        4.54595        0.62817
C          2.76378        5.52340        0.56844
C          0.46903        2.08683       -0.53396
O          1.61794        1.93029       -0.88283
C         -0.53360        0.99633       -0.34844
C         -1.89755        1.36340       -0.14945
C         -2.89877        0.36718       -0.10144
H          1.88284        0.08211        1.27698
H          4.19226        1.18842        1.79739
H          5.20182        0.98752        0.35446
H          5.89743        0.72750        1.96951
H          3.47805       -0.86902        3.15701
H          5.18039       -1.32354        3.34754
H          4.02545       -2.48503        2.66362
H          7.38837       -1.46969        1.88962
H          7.96498       -3.95109       -1.57358
H          5.61017       -3.58201       -2.26397
H          3.10447       -2.87209       -2.54610
H          0.82467       -1.92444       -2.37286
H         -0.93925       -2.37454       -0.48693
H         -7.24904       -4.25892        2.34056
H         -6.84123       -4.96812        0.74235
H         -8.08876       -3.69569        0.85718
H         -3.87277        4.09423        0.35006
H          3.25038        5.48577        1.54158
H          2.34076        6.51288        0.38351
H          3.46765        5.26890       -0.22672
