54
COMP82_410002.log	Energy: -1604259.1393476
C          0.93078        0.34756        0.23784
C          2.38562        0.42217        0.39046
C          3.09520        1.28645        1.18448
O          2.62215        2.24316        2.01416
C          4.49643        1.06496        1.09041
F          5.36346        1.80088        1.78993
C          4.86952        0.05433        0.25102
S          3.45069       -0.66482       -0.45898
C          6.21111       -0.39780       -0.05253
S          7.63535        0.32171        0.64902
C          8.68058       -0.75729       -0.21081
H          9.75212       -0.68551       -0.08578
C          7.98529       -1.62706       -0.99563
O          8.44780       -2.60709       -1.80582
C          6.58046       -1.40859       -0.89329
F          5.71076       -2.15202       -1.58171
C          0.27192       -0.88282        0.12546
C         -1.11191       -0.96751       -0.00535
C         -1.88373        0.19534       -0.00780
C         -3.31852        0.50698       -0.17654
C         -3.38978        2.02519       -0.27220
O         -4.31898        2.77279       -0.49431
N         -2.10551        2.45605       -0.02739
O         -1.73677        3.76730       -0.03546
C         -1.60895        4.25147       -1.37791
C         -1.19190        1.41949        0.07412
C          0.17607        1.53426        0.19991
C         -4.42783       -0.28366       -0.16421
C         -4.38602       -1.75183        0.24207
O         -3.45388       -2.50129        0.44161
N         -5.70468       -2.10963        0.42606
O         -6.07672       -3.42315        0.52013
C         -6.04789       -3.84658        1.88401
C         -6.58623       -1.14777       -0.05739
C         -7.95285       -1.27176       -0.20425
C         -8.63542       -0.17525       -0.73018
H         -9.71121       -0.23344       -0.86549
C         -7.95108        0.98184       -1.09211
C         -6.56878        1.08314       -0.93605
C         -5.85726        0.00801       -0.40002
H          1.66688        2.12584        2.11263
H          9.41103       -2.62304       -1.76321
H          0.85030       -1.80080        0.15934
H         -1.58762       -1.93224       -0.08772
H         -1.24285        5.27328       -1.27256
H         -2.58135        4.24821       -1.87659
H         -0.88533        3.64845       -1.93710
H          0.64508        2.51284        0.20403
H         -6.39784       -4.87969        1.86336
H         -6.71846       -3.23242        2.49447
H         -5.02812       -3.80353        2.27565
H         -8.45593       -2.19401        0.06207
H         -8.49596        1.82262       -1.50862
H         -6.05207        1.98525       -1.22333
