22
COMP34_200000.log	Energy: -1615354.0559809
C          1.61474       -0.17921        0.05578
C          0.15163       -0.03749       -0.00008
C         -0.56484        1.04413       -0.42855
Cl         0.12828        2.49659       -1.05311
C         -1.96919        0.84127       -0.32583
S         -3.37657        1.77614       -0.69477
C         -4.40131        0.48004       -0.15848
H         -5.47625        0.58790       -0.19152
C         -3.70049       -0.60180        0.27558
Cl        -4.41321       -2.05825        0.87601
C         -2.29261       -0.40000        0.18141
S         -0.88927       -1.33668        0.54342
C          2.38447        0.64724        0.87652
F          1.79597        1.56946        1.63317
C          3.76685        0.52007        0.92302
F          4.46521        1.33081        1.71789
C          4.41696       -0.44004        0.16579
H          5.49463       -0.54052        0.20836
C          3.66233       -1.27010       -0.64631
F          4.25865       -2.20140       -1.39072
C          2.28070       -1.14268       -0.70336
F          1.58948       -1.95432       -1.50229
