32
COMP57_110100.log	Energy: -1827833.5831137
C         -1.93204       -0.25903       -0.00192
C         -0.54039        0.12436       -0.00031
C         -0.02304        1.39095        0.00246
F         -0.76717        2.49682        0.00453
C          1.38966        1.44075        0.00333
F          2.04040        2.60493        0.00639
C          1.98741        0.20952        0.00129
S          0.76377       -1.03020       -0.00185
C          3.38800       -0.16333        0.00181
C          4.41311        0.71107       -0.00553
C          5.81512        0.33978       -0.00399
C          6.41160       -0.89203        0.00978
F          5.75428       -2.05326        0.02545
C          7.83175       -0.84731        0.00637
F          8.56297       -1.95795        0.01849
C          8.32842        0.41610       -0.00992
H          9.36530        0.71662       -0.01588
S          7.04839        1.57078       -0.02142
C         -2.46898       -1.52231       -0.00848
F         -1.72406       -2.62135       -0.01448
N         -3.80564       -1.65246       -0.00880
C         -4.35497       -0.46588       -0.00221
S         -3.25386        0.87288        0.00453
C         -5.78989       -0.25086       -0.00057
S         -6.90586       -1.57946       -0.00966
C         -8.19924       -0.44292       -0.00152
H         -9.23786       -0.73587       -0.00341
C         -7.67856        0.81563        0.00716
F         -8.40712        1.92018        0.01505
N         -6.33268        0.93766        0.00779
H          3.59404       -1.22902        0.00886
H          4.20661        1.77673       -0.01365
