28
COMP62_220001.log	Energy: -2154000.3002796
C         -2.86845        0.19346        0.02751
C         -1.45289        0.46005       -0.12794
C         -0.76942        1.65310       -0.24784
Cl        -1.47702        3.23050       -0.25802
C          0.63680        1.48556       -0.38441
Cl         1.73112        2.79685       -0.59139
C          1.01915        0.17009       -0.35922
S         -0.33981       -0.87633       -0.17303
C          2.37040       -0.37311       -0.46400
S          2.87043       -1.28872       -1.85011
C          4.44518       -1.52154       -1.20787
H          5.19244       -2.08268       -1.75038
C          4.58631       -0.92448        0.00697
Cl         6.04182       -0.96265        0.93195
C          3.39297       -0.26578        0.44032
Cl         3.25560        0.54341        1.95246
C         -3.51605       -1.01416        0.11535
C         -3.29775       -2.45655        0.11234
O         -2.29960       -3.14584        0.01479
N         -4.61084       -2.96695        0.26273
H         -4.79433       -3.95734        0.30282
C         -5.55537       -1.96616        0.35556
H         -6.60429       -2.19848        0.47803
C         -4.92167       -0.76950        0.26812
C         -5.14421        0.67626        0.27377
O         -6.13550        1.36324        0.37451
N         -3.82920        1.18707        0.12130
H         -3.64834        2.17800        0.08999
