66
COMP81_000023.log	Energy: -1719187.0979051
C         -0.90929       -0.17879        0.03948
C         -2.36811       -0.34744        0.03796
C         -3.30362        0.59828        0.31584
H         -3.06278        1.60999        0.61990
C         -4.65174        0.11279        0.21905
C         -5.84661        0.80737        0.43309
O         -5.85061        2.12790        0.78952
C         -5.72381        3.01932       -0.31261
C         -7.03941        0.11027        0.29176
S         -8.64705        0.76076        0.50688
C         -9.34629       -0.78785        0.10900
H        -10.42329       -0.89252        0.09982
C         -8.43277       -1.74582       -0.16270
H         -8.68155       -2.76250       -0.44109
C         -7.07904       -1.26106       -0.06059
C         -5.88344       -1.95540       -0.27122
O         -5.87891       -3.27735       -0.62650
C         -5.97549       -4.16438        0.48117
C         -4.69152       -1.25857       -0.13100
S         -3.08714       -1.90497       -0.36238
C         -0.04844       -1.25577        0.27894
C          1.32887       -1.09436        0.26809
C          1.88332        0.16355        0.01778
C          3.25319        0.68025        0.02874
C          3.12447        2.16902       -0.18816
O          4.00383        2.98199       -0.31809
N          1.74107        2.44417       -0.32192
C          1.15425        3.69645       -0.54541
O         -0.03064        3.84983       -0.73482
O          2.04522        4.67757       -0.51189
C          1.51035        5.98100       -0.74710
C          1.00171        1.24510       -0.17952
C         -0.37171        1.09474       -0.19322
C          4.46838        0.06366        0.13022
C          4.64344       -1.41186       -0.13864
O          3.80864       -2.21095       -0.48179
N          6.02641       -1.68376       -0.02714
C          6.65429       -2.91851       -0.23918
O          7.85294       -3.04503       -0.33283
O          5.78102       -3.91451       -0.30334
C          6.35506       -5.19846       -0.55256
C          6.72265       -0.49789        0.31117
C          8.07514       -0.35437        0.57969
C          8.52534        0.90046        0.98361
H          9.58194        1.03744        1.19249
C          7.64395        1.96759        1.12967
C          6.29235        1.81265        0.84780
C          5.81420        0.57443        0.40870
H         -5.77442        4.02720        0.10176
H         -6.54011        2.87479       -1.03055
H         -4.76437        2.88060       -0.82564
H         -5.92730       -5.17420        0.07094
H         -6.92455       -4.02794        1.01426
H         -5.14548       -4.01218        1.18179
H         -0.45859       -2.23893        0.48799
H          1.96668       -1.94619        0.44246
H          2.36813        6.65048       -0.70541
H          0.78038        6.24095        0.02274
H          1.03248        6.02861       -1.72802
H         -1.01017        1.94036       -0.39911
H          5.51116       -5.88605       -0.57991
H          7.04939       -5.47042        0.24552
H          6.88464       -5.20186       -1.50785
H          8.75147       -1.18994        0.47628
H          8.01096        2.93372        1.46065
H          5.62005        2.64937        0.95118
