58
COMP95_000013.log	Energy: -1204177.6796574
C          0.21615       -0.14311        0.12354
C          1.66213       -0.48005        0.23251
C          2.22884       -1.32311       -0.71811
C          3.56047       -1.69445       -0.54858
N          4.35428       -2.49852       -1.34133
H          4.06761       -2.92749       -2.20481
C          5.61227       -2.60291       -0.77635
C          6.73096       -3.30477       -1.22366
C          7.88095       -3.23886       -0.45000
H          8.76826       -3.77472       -0.77352
C          7.92141       -2.49467        0.73919
C          6.80447       -1.79889        1.17718
C          5.63453       -1.84876        0.41680
C          4.31749       -1.26434        0.56172
C          3.72328       -0.43362        1.51341
C          2.40638       -0.04470        1.34414
C         -0.68533       -1.23651        0.19072
C         -2.04354       -1.05911        0.16354
C         -2.93491       -2.24558        0.23183
O         -2.53694       -3.38955        0.27128
N         -4.30464       -1.96809        0.24647
C         -5.19540       -3.10985        0.36102
O         -5.55117       -3.55936        1.40967
O         -5.51969       -3.53237       -0.84759
C         -6.40877       -4.65511       -0.87261
C         -4.91407       -0.71260        0.15619
O         -6.12217       -0.61562        0.14475
C         -3.99104        0.44840        0.07898
C         -4.51332        1.71938        0.00240
H         -5.59002        1.84940        0.00384
C         -3.64931        2.82410       -0.07412
C         -2.28365        2.64388       -0.08326
C         -1.41213        3.84021       -0.16990
O         -1.82407        4.98060       -0.17425
N         -0.04922        3.57019       -0.26040
C          0.82445        4.70545       -0.49837
O          1.00009        5.18136       -1.58066
O          1.35764        5.09387        0.64646
C          2.28242        6.18169        0.53761
C          0.58423        2.31818       -0.22939
O          1.78043        2.26449       -0.40597
C         -0.30377        1.14034       -0.00482
C         -1.71443        1.34728       -0.00448
C         -2.59112        0.24219        0.08096
H          1.65122       -1.66471       -1.57242
H          6.70518       -3.88125       -2.14356
H          8.83840       -2.46509        1.31919
H          6.83777       -1.22404        2.09830
H          4.28589       -0.09541        2.37837
H          1.93487        0.60552        2.07399
H         -0.28855       -2.24227        0.28317
H         -6.58806       -4.85717       -1.92710
H         -7.34070       -4.40610       -0.36098
H         -5.94045       -5.51369       -0.38690
H         -4.04007        3.83434       -0.13011
H          2.62338        6.37373        1.55347
H          1.78305        7.05946        0.12247
H          3.11853        5.89653       -0.10446
