50
COMP93_000002.log	Energy: -932311.2924472
C         -0.87151       -0.80525        0.08347
C         -2.15716       -1.56290        0.15633
C         -2.65304       -2.13092       -1.01662
C         -3.80687       -2.91208       -1.01695
C         -4.35418       -3.49797       -2.29411
C         -4.44487       -3.12964        0.20420
H         -5.34333       -3.74127        0.23928
C         -3.94318       -2.58019        1.37747
C         -2.79634       -1.78706        1.38145
C         -2.28565       -1.17387        2.65921
C          0.30622       -1.59135        0.00439
C          1.55156       -1.02419       -0.07967
C          2.74721       -1.90781       -0.15609
O          2.69267       -3.11583       -0.12437
N          3.97007       -1.23299       -0.25797
O          5.07039       -2.01868       -0.46878
C          5.68441       -2.38119        0.76895
C          4.19535        0.14956       -0.26710
O          5.31471        0.60564       -0.32230
C          2.96754        0.98739       -0.18813
C          3.09230        2.35769       -0.20926
H          4.08125        2.79662       -0.28306
C          1.94429        3.16466       -0.14199
C          0.69374        2.59533       -0.04597
C         -0.48502        3.49607        0.02453
O         -0.41408        4.70389       -0.02213
N         -1.70785        2.83565        0.13828
O         -2.79735        3.63551        0.35194
C         -3.42285        3.98876       -0.88244
C         -1.96179        1.45276        0.15105
O         -3.09996        1.05159        0.21525
C         -0.75212        0.57867        0.07769
C          0.53249        1.18713       -0.01769
C          1.69182        0.38243       -0.09459
H         -2.12858       -1.95189       -1.95277
H         -3.65296       -3.37208       -3.12424
H         -5.29586       -3.01306       -2.57563
H         -4.55727       -4.56853       -2.18368
H         -4.45499       -2.76934        2.31770
H         -2.77941       -1.61470        3.52953
H         -2.48351       -0.09592        2.67380
H         -1.20572       -1.31429        2.77840
H          0.21980       -2.67308        0.01257
H          6.54115       -2.99133        0.48122
H          4.99670       -2.97183        1.38139
H          6.02607       -1.48996        1.30340
H          2.02114        4.24641       -0.16271
H         -4.25956        4.62531       -0.59294
H         -3.79406        3.09571       -1.39338
H         -2.73152        4.55147       -1.51670
