56
COMP61_400033.log	Energy: -1714436.2524678
C         -1.83125        1.20397        0.12727
C         -0.51215        0.67667       -0.03164
C         -0.09521       -0.59629        0.30786
O         -0.81023       -1.54765        0.89116
C          1.32978       -0.77803        0.11709
C          2.08701       -1.92502        0.37740
C          1.47738       -3.25436        0.70919
O          1.79735       -3.92361        1.66243
O          0.61134       -3.63330       -0.22976
C         -0.08656       -4.84958        0.04133
C          3.46919       -1.82587        0.25979
S          4.61382       -3.11047        0.56444
C          5.92412       -2.08251        0.05575
H          6.93318       -2.47414        0.04127
C          5.53515       -0.83349       -0.29691
O          6.31143        0.16019       -0.78417
C          4.10790       -0.63295       -0.16481
C          3.34452        0.50791       -0.45079
C          3.95403        1.85300       -0.70596
O          4.76200        2.38738        0.00915
O          3.40740        2.42572       -1.78856
C          3.81621        3.77196       -2.04199
C          1.96087        0.40454       -0.32521
S          0.80276        1.67117       -0.66138
C         -3.04897        0.56497        0.05637
C         -3.61683       -0.72345       -0.22904
O         -3.09019       -1.82495       -0.36127
N         -5.02173       -0.45524       -0.30658
C         -6.08657       -1.34444       -0.54013
O         -7.23220       -0.96740       -0.58365
O         -5.66577       -2.58816       -0.69446
C         -6.70067       -3.54573       -0.93755
C         -5.27900        0.91302       -0.12014
H         -6.29137        1.27676       -0.20781
C         -4.10541        1.52993        0.11657
C         -3.51395        2.85916        0.28177
O         -3.99121        3.94830        0.44910
N         -2.09127        2.57689        0.26567
C         -1.18310        3.55449        0.76993
O         -1.06439        4.65110        0.30275
O         -0.54745        3.07182        1.83487
C          0.49757        3.90659        2.34345
H         -1.68296       -1.70327        0.43022
H         -0.78287       -4.97594       -0.78640
H         -0.62648       -4.76715        0.98742
H          0.61210       -5.68784        0.09345
H          7.23294       -0.12453       -0.78660
H          3.27839        4.07508       -2.93894
H          4.89545        3.81614       -2.20310
H          3.55097        4.41546       -1.19962
H         -6.18807       -4.50211       -1.02403
H         -7.22964       -3.30656       -1.86257
H         -7.40978       -3.55981       -0.10731
H          0.90468        3.37088        3.19909
H          0.09402        4.87497        2.64508
H          1.26606        4.04677        1.57895
