37
COMP27_330300.log	Energy: -1551614.6229576
C          2.95203        0.29467       -0.05023
C          1.58869       -0.15416        0.26711
C          1.24224       -1.24135        1.03537
C          2.19548       -2.06240        1.71141
N          2.98411       -2.70805        2.26174
C         -0.17386       -1.42830        1.11869
C         -0.79987       -2.46381        1.87415
N         -1.32954       -3.29474        2.48393
C         -0.88443       -0.47759        0.41385
S          0.18759        0.62479       -0.37233
C         -2.32940       -0.37767        0.31985
C         -2.98337        0.74497       -0.02562
C         -4.42653        0.86315       -0.16132
C         -5.38341       -0.09744       -0.42492
C         -5.09326       -1.47317       -0.66239
N         -4.84697       -2.58940       -0.85557
C         -6.71279        0.44508       -0.48228
C         -7.88397       -0.32910       -0.74794
N         -8.83851       -0.94869       -0.96408
C         -6.73475        1.79576       -0.27005
H         -7.60284        2.43987       -0.26261
S         -5.16612        2.42216        0.00017
C          3.87189       -0.62474       -0.64978
N          3.59419       -1.88003       -1.00396
S          4.96456       -2.49519       -1.60949
N          5.95250       -1.21723       -1.47393
C          5.22510       -0.23955       -0.92779
C          5.67400        1.07579       -0.64233
H          6.69511        1.36629       -0.85837
C          4.77960        1.95478       -0.09409
C          5.20243        3.29600        0.19687
N          5.55922        4.37509        0.41938
C          3.41905        1.56610        0.21181
C          2.56147        2.53506        0.83365
N          1.86581        3.31683        1.33058
H         -2.87119       -1.28445        0.57613
H         -2.42131        1.66139       -0.19946
