42
COMP91_200011.log	Energy: -1911487.1387491
C          1.14469       -0.17734       -0.11250
C         -0.33475       -0.13283       -0.09239
C         -1.14219       -0.25711        0.98396
Cl        -0.55083       -0.39702        2.60642
C         -2.55150       -0.23322        0.67747
C         -3.63721       -0.32222        1.54506
H         -3.48322       -0.42416        2.61423
C         -4.90746       -0.27433        0.98971
S         -6.42713       -0.36248        1.85597
C         -7.32287       -0.22520        0.37055
H         -8.40398       -0.23072        0.38277
C         -6.52369       -0.11803       -0.71174
Cl        -7.11461        0.03522       -2.33426
C         -5.11274       -0.14153       -0.40584
C         -4.02558       -0.05320       -1.27362
H         -4.17946        0.05174       -2.34250
C         -2.75703       -0.09888       -0.71753
S         -1.23976       -0.01022       -1.58489
C          1.74224       -1.45850       -0.17399
C          3.10512       -1.60726       -0.20085
C          3.69155       -2.97402       -0.26724
O          3.03071       -3.98971       -0.29616
N          5.07983       -3.01805       -0.29726
H          5.49153       -3.94323       -0.34371
C          5.97704       -1.95680       -0.27234
O          7.17374       -2.14904       -0.30658
C          5.35976       -0.60436       -0.20069
C          6.16858        0.50755       -0.16769
H          7.24484        0.37500       -0.19521
C          5.59626        1.79001       -0.09821
C          4.22910        1.94300       -0.06554
C          3.66186        3.31361        0.01359
O          4.33276        4.32352        0.04618
N          2.27773        3.36787        0.05104
H          1.87136        4.29495        0.10678
C          1.36025        2.32335        0.01023
O          0.17321        2.56207        0.04471
C          1.95003        0.95187       -0.07596
C          3.36700        0.81543       -0.10221
C          3.94882       -0.47146       -0.16903
H          1.11342       -2.34268       -0.19795
H          6.21823        2.67835       -0.06909
