42
COMP62_300003.log	Energy: -1402063.1923628
C         -1.31945       -0.76415       -0.13502
C          0.10093       -0.94478        0.11199
C          0.74772       -1.88783        0.89258
C          0.08620       -2.93401        1.60533
N         -0.44299       -3.78650        2.18620
C          2.15110       -1.68631        0.96170
H          2.81136       -2.30697        1.55518
C          2.56314       -0.60290        0.23064
S          1.23091        0.17486       -0.54735
C          3.91318       -0.08271        0.06612
S          5.28432       -1.15213        0.05221
C          6.37463        0.15019       -0.15787
H          7.44017       -0.01964       -0.22337
C          5.71732        1.35145       -0.23144
C          6.38691        2.60256       -0.40856
N          6.92547        3.61863       -0.55218
C          4.30105        1.21813       -0.10022
H          3.61657        2.05825       -0.10511
C         -2.01521        0.40520       -0.16111
C         -1.84057        1.84700        0.03713
O         -0.85497        2.52671        0.16760
N         -3.21255        2.32657        0.01561
C         -3.69477        3.64090        0.14407
O         -4.87382        3.89564        0.09021
O         -2.71312        4.50596        0.32756
C         -3.12671        5.86854        0.47032
C         -4.10955        1.27001       -0.16317
H         -5.17045        1.47377       -0.16693
C         -3.41372        0.12238       -0.28332
C         -3.60023       -1.32393       -0.37978
O         -4.57841       -1.99795       -0.55690
N         -2.23707       -1.82439       -0.26429
C         -1.85602       -3.14240       -0.62567
O         -0.84086       -3.38904       -1.22751
O         -2.75019       -4.00895       -0.19713
C         -2.44676       -5.38021       -0.47298
H         -2.20714        6.42576        0.63950
H         -3.80615        5.97297        1.31869
H         -3.62507        6.21134       -0.43893
H         -3.30984       -5.93852       -0.11550
H         -1.54528       -5.67030        0.07066
H         -2.30201       -5.53220       -1.54442
