48
COMP77_210003.log	Energy: -2562802.3766872
C          0.66648       -1.57813        0.67998
C         -0.58260       -0.83843        0.72453
C         -0.81383        0.38161        1.29081
F          0.10664        1.09401        1.91752
C         -2.15570        0.82850        1.17642
Cl        -2.66409        2.34553        1.82048
C         -2.97319       -0.06598        0.52955
S         -2.05646       -1.45958        0.03907
C         -4.38748        0.09264        0.26169
C         -5.17622       -0.85652       -0.27412
C         -6.59313       -0.75331       -0.57279
C         -7.48674        0.29156       -0.53927
Cl        -7.14552        1.92666       -0.10733
C         -8.80233       -0.09146       -0.92947
F         -9.80027        0.78368       -0.96085
C         -8.92400       -1.40258       -1.25795
H         -9.81428       -1.92071       -1.58104
S         -7.41080       -2.20202       -1.09366
C          1.93361       -1.13511        0.37066
C          2.29143        0.21324       -0.12605
O          1.47311        1.04827       -0.46084
C          3.75510        0.44940       -0.26377
C          4.30507        1.67195       -0.55591
C          3.61905        2.99553       -0.66353
O          3.72106        3.72351       -1.62017
O          2.93607        3.26251        0.44536
C          2.07443        4.40049        0.37760
S          5.99257        1.55528       -0.83375
C          5.98949       -0.14524       -0.54416
C          7.25178       -0.91082       -0.75537
O          7.32683       -1.99294       -1.27364
O          8.30417       -0.18469       -0.34788
C          9.58115       -0.78363       -0.58182
C          4.73100       -0.59938       -0.22689
C          4.37213       -1.96894        0.24017
O          5.18620       -2.84155        0.46047
C          2.92178       -2.16727        0.49368
C          2.39386       -3.36627        0.87314
H          2.93220       -4.29301        1.01750
S          0.70139       -3.26194        1.11344
H         -4.79389        1.05927        0.53545
H         -4.73913       -1.82562       -0.51329
H          1.60065        4.46349        1.35589
H          1.32301        4.24625       -0.40010
H          2.64615        5.30620        0.16346
H         10.31102       -0.07017       -0.20204
H          9.73063       -0.95723       -1.65010
H          9.65626       -1.73449       -0.04989
