52
COMP82_140000.log	Energy: -1509978.6260091
C          0.69385        0.52290        0.18311
C          2.15297        0.64719        0.19418
C          2.93041        1.73529        0.46094
F          2.47873        2.96219        0.79042
C          4.33011        1.52217        0.39715
O          5.24917        2.48730        0.63934
C          4.64848        0.22994        0.06733
S          3.18996       -0.70389       -0.16821
C          5.96719       -0.34343       -0.09081
S          7.43077        0.59433        0.12133
C          8.43852       -0.76196       -0.22645
H          9.51520       -0.68231       -0.22036
C          7.68452       -1.85564       -0.48523
F          8.14761       -3.07865       -0.79239
C          6.28078       -1.63924       -0.41335
O          5.35877       -2.60508       -0.63895
C          0.07990       -0.72718        0.32518
C         -1.30339       -0.87327        0.30664
C         -2.12116        0.24689        0.15660
C         -3.57156        0.48134        0.02803
C         -3.69869        1.98202       -0.18864
O         -4.69521        2.67054       -0.30653
N         -2.42431        2.49804       -0.17966
C         -2.13173        3.90088       -0.33343
C         -1.48156        1.49525        0.00488
C         -0.11174        1.66149        0.01608
C         -4.64599       -0.35689        0.08521
C         -4.54436       -1.80191        0.54963
O         -3.57898       -2.42298        0.95568
N         -5.80998       -2.33242        0.48799
C         -6.12633       -3.68614        0.86766
C         -6.72240       -1.39537        0.01775
C         -8.07156       -1.60370       -0.20778
C         -8.81520       -0.53725       -0.71318
H         -9.87710       -0.66875       -0.89835
C         -8.20634        0.68349       -0.98282
C         -6.84525        0.87847       -0.74645
C         -6.07706       -0.16475       -0.22753
H          4.78566        3.30227        0.87327
H          5.81974       -3.42736       -0.85190
H          0.68948       -1.61299        0.47505
H         -1.74279       -1.84999        0.43315
H         -3.08296        4.42346       -0.43805
H         -1.52060        4.07305       -1.22600
H         -1.59990        4.28197        0.54472
H          0.32994        2.64106       -0.11697
H         -5.20440       -4.15462        1.21337
H         -6.52228       -4.24469        0.01256
H         -6.86585       -3.69638        1.67535
H         -8.53279       -2.56455       -0.00468
H         -8.79463        1.50454       -1.37971
H         -6.38983        1.83530       -0.94657
