32
COMP57_010100.log	Energy: -1703336.6639010
C          1.63643        0.24794       -0.01451
C          0.23959       -0.11254       -0.06652
C         -0.29920       -1.36894       -0.18247
F          0.46410       -2.46367       -0.26985
C         -1.70616       -1.43458       -0.21912
H         -2.25247       -2.36174       -0.33459
C         -2.27157       -0.18763       -0.11908
S         -1.05450        1.04733        0.00799
C         -3.67298        0.19457       -0.10121
C         -4.69024       -0.66813        0.06613
C         -6.09676       -0.30302        0.04096
C         -6.69232        0.87163       -0.34452
H         -6.16832        1.73607       -0.73219
C         -8.10067        0.81748       -0.19964
F         -8.87866        1.85319       -0.52013
C         -8.58410       -0.36302        0.27634
H         -9.61350       -0.63086        0.46110
S         -7.28799       -1.45710        0.56735
C          2.19566        1.49517        0.11406
F          1.47007        2.60378        0.21183
N          3.53442        1.60034        0.14307
C          4.06355        0.40928        0.03526
S          2.93910       -0.90180       -0.10785
C          5.49433        0.16901        0.03292
S          6.63246        1.47013        0.18634
C          7.90698        0.31649        0.08750
H          8.95022        0.58856        0.13382
C          7.36549       -0.92539       -0.04929
F          8.07579       -2.03738       -0.15308
N          6.01785       -1.02284       -0.08142
H         -3.88551        1.25441       -0.22515
H         -4.47134       -1.71914        0.24452
