59
COMP89_000002.log	Energy: -1458623.8142747
C          1.12428       -0.05129        0.00544
C          2.58831       -0.10310        0.02468
C          3.45454        0.82413        0.55657
C          4.80954        0.45727        0.39278
C          4.96057       -0.74357       -0.25994
S          3.45611       -1.44717       -0.69293
C          6.37288       -1.03316       -0.38209
C          7.08638       -0.01073        0.19776
C          6.15838        1.05516        0.75913
C          6.37471        2.41062        0.06653
C          6.31696        1.19283        2.28218
C          8.48980       -0.21160        0.12409
C          8.80000       -1.38222       -0.51046
H          9.78098       -1.79247       -0.70694
S          7.39194       -2.25730       -1.02767
C          0.34271       -1.21313       -0.03423
C         -1.04896       -1.16896       -0.03334
C         -1.70789        0.06061        0.02428
C         -3.11687        0.51028        0.01908
C         -3.04592        2.03132        0.09573
O         -3.91772        2.86681        0.21767
N         -1.70808        2.33566        0.01813
O         -1.22307        3.58386        0.28562
C         -1.29916        4.40531       -0.88190
C         -0.89403        1.21179        0.03833
C          0.48114        1.19673        0.02958
C         -4.29829       -0.16853       -0.02166
C         -4.39047       -1.68112        0.13109
O         -3.53097       -2.52979        0.25310
N         -5.73695       -1.95532        0.18076
O         -6.22362       -3.22839        0.10028
C         -6.29800       -3.81150        1.40322
C         -6.52787       -0.84563       -0.08567
C         -7.89861       -0.82283       -0.24784
C         -8.48361        0.41219       -0.52340
H         -9.55913        0.47559       -0.65851
C         -7.70087        1.55815       -0.63233
C         -6.31687        1.50831       -0.46523
C         -5.69863        0.28938       -0.18010
H          3.11298        1.71739        1.06798
H          6.26004        2.31495       -1.01708
H          7.37933        2.79363        0.27677
H          5.64792        3.14627        0.42861
H          6.16493        0.22967        2.77762
H          5.58751        1.90703        2.68001
H          7.31990        1.55703        2.53080
H          9.23856        0.46768        0.51540
H          0.82842       -2.18422       -0.03874
H         -1.61707       -2.08576       -0.05139
H         -0.83022        5.34700       -0.59335
H         -2.34300        4.57471       -1.15860
H         -0.75029        3.94828       -1.71209
H          1.03703        2.12698        0.02188
H         -6.74184       -4.79553        1.24568
H         -6.93714       -3.20985        2.05836
H         -5.29801       -3.91437        1.83271
H         -8.47681       -1.73696       -0.17765
H         -8.17006        2.51244       -0.84829
H         -5.72959        2.40955       -0.54294
