30
COMP32_340000.log	Energy: -1297228.3951569
C         -2.41559       -0.23176        0.00912
C         -1.03310        0.25472       -0.09463
C         -0.62313        1.53981       -0.37136
C         -1.46951        2.64452       -0.67342
N         -2.07800        3.59515       -0.94216
C          0.79817        1.68193       -0.37134
O          1.45693        2.83297       -0.62421
C          1.46014        0.51085       -0.09362
S          0.31672       -0.77734        0.16884
C          2.89283        0.30678       -0.02527
S          4.04538        1.58428       -0.32547
C          5.37462        0.54853       -0.05783
H          6.38870        0.91384       -0.13695
C          4.97696       -0.72609        0.25051
C          5.83068       -1.83149        0.53161
N          6.44852       -2.78374        0.77250
C          3.55121       -0.86223        0.26876
O          2.88886       -2.00589        0.54394
C         -2.86011       -1.33735       -0.72028
F         -2.02494       -1.97844       -1.53747
C         -4.17106       -1.78299       -0.61970
F         -4.55152       -2.83783       -1.33911
C         -5.07651       -1.14234        0.20924
H         -6.09881       -1.49182        0.28588
C         -4.64856       -0.04634        0.93929
F         -5.49153        0.58666        1.75280
C         -3.33752        0.40281        0.84675
F         -2.96353        1.44867        1.58041
H          0.82848        3.54711       -0.80244
H          3.51469       -2.72445        0.71301
