37
COMP27_440400.log	Energy: -1487584.4675520
C          2.82569        0.42370        0.12884
C          1.49482       -0.15625        0.33917
C          1.15072       -1.41680        0.77529
O          1.92109       -2.44815        1.19226
C         -0.25755       -1.64047        0.81948
O         -0.76615       -2.82364        1.22675
C         -1.00458       -0.56884        0.41602
S          0.03549        0.75560       -0.02271
C         -2.44918       -0.51664        0.36965
C         -3.19494        0.55175        0.02131
C         -4.64435        0.53843       -0.07960
C         -5.45963       -0.49955       -0.44446
O         -5.10710       -1.76352       -0.80986
C         -6.85033       -0.16669       -0.47158
O         -7.80040       -1.06693       -0.81757
C         -7.08193        1.12870       -0.12833
H         -8.03657        1.62928       -0.06642
S         -5.60636        1.96274        0.22433
C          3.97489       -0.37637       -0.21488
N          3.99315       -1.69988       -0.35517
S          5.51647       -2.14199       -0.76068
N          6.21204       -0.67134       -0.77855
C          5.27206        0.21198       -0.46383
C          5.46477        1.61753       -0.36965
H          6.43876        2.05342       -0.56246
C          4.37634        2.35646       -0.03587
O          4.36953        3.70895        0.10305
C          3.07228        1.77819        0.21167
O          2.08353        2.63521        0.52033
H          2.75676       -2.44014        0.67622
H         -0.00582       -3.39267        1.42534
H         -2.93584       -1.43522        0.69349
H         -2.70095        1.49402       -0.21457
H         -4.16423       -1.77608       -1.02939
H         -7.34536       -1.88851       -1.05137
H          5.24892        4.07016       -0.06071
H          2.44001        3.53645        0.51158
