54
COMP71_400030.log	Energy: -2004506.8103763
C          1.41890        1.23532        0.70924
C          0.07229        0.79511        0.38864
C         -0.49006       -0.44891        0.51484
O          0.14574       -1.58531        0.80824
C         -1.92161       -0.44698        0.29595
C         -2.78698       -1.54322        0.32333
C         -2.34688       -2.90962        0.75881
O         -2.39049       -3.89303        0.05933
O         -1.97914       -2.90221        2.03998
C         -1.45224       -4.13516        2.52714
C         -4.11282       -1.33116       -0.03525
S         -5.36268       -2.55280       -0.08116
C         -6.55058       -1.34267       -0.48160
H         -7.58767       -1.62907       -0.59983
C         -6.03712       -0.09534       -0.60472
O         -6.72122        1.04646       -0.84319
C         -4.60563       -0.04948       -0.38486
C         -3.73356        1.04865       -0.42180
C         -4.13958        2.37576       -0.98446
O         -4.67855        2.53551       -2.04932
O         -3.75041        3.37941       -0.18137
C         -3.99258        4.69181       -0.68973
C         -2.40772        0.83389       -0.04596
S         -1.12957        2.02604       -0.02382
C          2.68426        0.73162        0.43359
C          3.01250       -0.45188       -0.37291
O          2.16431       -1.25273       -0.78221
C          4.43629       -0.64802       -0.68410
C          4.91268       -1.65939       -1.48357
C          4.16557       -2.72947       -2.21591
S          6.63686       -1.57298       -1.57114
C          6.73713       -0.19228       -0.53353
C          8.05582        0.41925       -0.17853
C          5.47937        0.18568       -0.14355
C          5.18191        1.32930        0.73454
O          6.03981        2.04431        1.22888
C          3.73484        1.57345        0.95063
C          3.27143        2.67184        1.60378
H          3.87005        3.44832        2.06007
S          1.56071        2.72355        1.61359
H          0.98040       -1.58532        0.27556
H         -1.23491       -3.96360        3.58053
H         -0.53873       -4.38816        1.98378
H         -2.18211       -4.93940        2.40867
H         -7.65142        0.83603       -0.98676
H         -3.59853        5.37410        0.06238
H         -5.06403        4.85078       -0.83129
H         -3.48112        4.83275       -1.64484
H          3.41592       -2.28773       -2.87782
H          3.62436       -3.36699       -1.51116
H          4.84081       -3.35121       -2.80959
H          8.88269       -0.09354       -0.67689
H          8.21336        0.37822        0.90299
H          8.07172        1.47608       -0.45809
