44
COMP67_010003.log	Energy: -1459399.1011381
C         -1.92857       -0.80181       -0.05976
C         -0.49971       -0.88262        0.09873
C          0.24564       -1.84945        0.73846
F         -0.29966       -2.91337        1.32746
C          1.62901       -1.61729        0.78041
H          2.32556       -2.28289        1.27309
C          1.96110       -0.43740        0.15240
S          0.56007        0.37720       -0.45172
C          3.26445        0.17438       -0.03735
C          4.43473       -0.42902        0.23378
C          5.73834        0.19379        0.07974
C          6.05833        1.50351       -0.17728
H          5.34126        2.30705       -0.28797
C          7.45930        1.69385       -0.26149
F          7.99113        2.89324       -0.50317
C          8.20326        0.56913       -0.07007
H          9.27866        0.47452       -0.08526
S          7.17405       -0.77816        0.22148
C         -2.72872        0.30264       -0.11244
C         -2.66479        1.75679       -0.02907
O         -1.73593        2.52664       -0.02114
N         -4.07475        2.12352        0.01593
C         -4.65471        3.39767        0.09995
O         -5.85197        3.55686        0.14083
O         -3.74031        4.35371        0.12922
C         -4.26114        5.68136        0.22517
C         -4.88950        0.98733       -0.02372
H         -5.96136        1.10377        0.03828
C         -4.10291       -0.10247       -0.11637
C         -4.16740       -1.56151       -0.11267
O         -5.09130       -2.32794       -0.18287
N         -2.76307       -1.94057       -0.06226
C         -2.31751       -3.22590       -0.46170
O         -1.41765       -3.40747       -1.24132
O         -3.03363       -4.16175        0.13726
C         -2.72971       -5.49963       -0.26241
H          3.26512        1.18719       -0.43439
H          4.43363       -1.45774        0.58908
H         -3.38715        6.33054        0.21216
H         -4.81859        5.80483        1.15634
H         -4.91671        5.89808       -0.62099
H         -3.39824       -6.13136        0.31981
H         -1.68530       -5.72980       -0.04085
H         -2.91178       -5.62877       -1.33157
