36
COMP62_110002.log	Energy: -1393052.3953184
C          1.79637       -0.71547        0.03687
C          0.37124       -0.90290       -0.07216
C         -0.36097       -2.01677       -0.40027
F          0.12522       -3.20036       -0.74480
C         -1.75328       -1.79167       -0.39689
F         -2.62042       -2.75878       -0.69817
C         -2.11251       -0.51036       -0.07420
S         -0.69430        0.44684        0.21470
C         -3.45064        0.03267        0.01301
S         -4.87867       -0.90857       -0.32958
C         -5.92278        0.42392       -0.00372
H         -6.99496        0.32704       -0.08690
C         -5.21672        1.52779        0.34699
F         -5.73740        2.71003        0.65746
C         -3.81351        1.30568        0.35680
F         -2.94853        2.26587        0.67538
C          2.53254        0.43797       -0.07010
C          2.41965        1.83106       -0.48202
O          1.49192        2.56280       -0.76201
N          3.78466        2.24423       -0.44381
O          4.20126        3.48120       -0.83420
C          3.92542        4.45322        0.17980
C          4.65511        1.24500       -0.08263
H          5.71823        1.43645       -0.04854
C          3.91907        0.12921        0.16172
C          4.03577       -1.28012        0.49362
O          4.94643       -1.98902        0.85237
N          2.69086       -1.75081        0.28872
O          2.27220       -2.89516        0.91738
C          2.71342       -4.05712        0.20646
H          4.31877        5.38891       -0.21915
H          4.44044        4.19445        1.11174
H          2.84855        4.53647        0.34477
H          2.16947       -4.88418        0.66422
H          3.78947       -4.18890        0.33297
H          2.45553       -3.97853       -0.85227
