40
COMP67_300000.log	Energy: -1214047.7081109
C         -2.87909       -0.70972        0.09853
C         -1.44539       -0.91408        0.03578
C         -0.73907       -2.07356       -0.17955
H         -1.18441       -3.04359       -0.34552
C          0.66460       -1.87620       -0.19688
C          1.57056       -2.95863       -0.40343
N          2.29889       -3.84599       -0.57216
C          1.03577       -0.55141        0.00629
S         -0.36327        0.43755        0.19772
C          2.33522        0.09377        0.07213
C          3.52067       -0.51931       -0.11480
C          4.82576        0.11399       -0.04298
C          5.22680        1.38545        0.34042
C          4.34402        2.40825        0.79763
N          3.63427        3.24691        1.17074
C          6.63834        1.58594        0.25415
H          7.12197        2.51879        0.51502
C          7.29260        0.47713       -0.18577
H          8.35488        0.35202       -0.34132
S          6.21052       -0.81999       -0.49993
C         -3.57901        0.46090       -0.05161
C         -3.42253        1.87862       -0.34561
O         -2.44872        2.59343       -0.49779
N         -4.76625        2.34653       -0.41350
C         -5.09177        3.73241       -0.66824
C         -5.66129        1.32819       -0.17759
H         -6.72660        1.51811       -0.19956
C         -4.97714        0.17655        0.05082
C         -5.13987       -1.24480        0.30777
O         -6.11006       -1.94704        0.49908
N         -3.79580       -1.73495        0.31847
C         -3.54088       -3.11378        0.67403
H          2.30686        1.15799        0.28649
H          3.54352       -1.57979       -0.34722
H         -4.14848        4.25482       -0.83621
H         -5.60191        4.18109        0.18961
H         -5.72021        3.82744       -1.55870
H         -4.47819       -3.51031        1.06844
H         -2.76412       -3.18154        1.44002
H         -3.25657       -3.71300       -0.19735
