38
COMP67_200000.log	Energy: -1675104.9173900
C          2.96567       -0.61120       -0.07203
C          1.57878       -1.00944        0.03356
C          1.04168       -2.24908        0.29922
H          1.61052       -3.14711        0.48833
C         -0.36736       -2.22618        0.33867
Cl        -1.29320       -3.65773        0.66452
C         -0.92728       -0.98737        0.11085
S          0.32152        0.18293       -0.15000
C         -2.33930       -0.66657        0.08592
C         -2.84030        0.57879       -0.01551
C         -4.24124        0.95893       -0.06261
C         -5.41357        0.24734       -0.19066
Cl        -5.52454       -1.47678       -0.35846
C         -6.59146        1.04440       -0.20017
H         -7.58688        0.62970       -0.29660
C         -6.31158        2.37098       -0.07982
H         -7.01085        3.19499       -0.05742
S         -4.62241        2.65676        0.04468
C          3.49921        0.65506       -0.01983
C          3.15428        2.05671        0.16723
O          2.09496        2.64797        0.28415
N          4.42272        2.70633        0.16958
C          4.56068        4.13814        0.31085
C          5.44654        1.80398       -0.00933
H          6.47599        2.13741       -0.02853
C          4.92192        0.55732       -0.13283
C          5.27723       -0.84215       -0.29276
O          6.33486       -1.41462       -0.45419
N          4.01588       -1.51201       -0.24016
C          3.95733       -2.93657       -0.48268
H         -3.00015       -1.52187        0.16310
H         -2.14561        1.41728       -0.05742
H          3.55647        4.54484        0.44224
H          5.01224        4.58023       -0.58271
H          5.16695        4.38794        1.18700
H          4.94348       -3.22638       -0.84988
H          3.20214       -3.17430       -1.23614
H          3.75548       -3.49669        0.43621
