33
COMP42_020003.log	Energy: -1935312.7925148
C         -1.00049       -1.25939       -0.23368
C          0.24976       -0.52135       -0.23845
C          0.40837        0.84135       -0.24316
H         -0.41808        1.54183       -0.24326
C          1.77566        1.21552       -0.23370
Cl         2.27238        2.87333       -0.21879
C          2.65589        0.16455       -0.21856
S          1.78576       -1.33520       -0.22717
C          4.11550        0.18729       -0.21162
S          5.02161        0.71108       -1.59766
C          6.51923        0.43382       -0.80095
H          7.45136        0.64243       -1.30775
C          6.35106       -0.04231        0.46352
H          7.15574       -0.28219        1.14642
C          4.97318       -0.18240        0.79119
Cl         4.44597       -0.75118        2.34062
C         -2.29832       -0.81364       -0.16433
C         -3.00719        0.48188       -0.07935
O         -2.57831        1.60847       -0.10127
N         -4.38836        0.13478       -0.01772
C         -5.45677        1.06891        0.02466
O         -6.48085        0.93103       -0.58558
O         -5.15409        2.07148        0.83920
C         -6.13086        3.11441        0.89409
C         -4.61943       -1.27292       -0.08539
O         -5.68632       -1.81881       -0.02980
C         -3.26155       -1.85279       -0.17961
C         -2.73940       -3.10116       -0.25829
H         -3.24689       -4.05520       -0.28519
S         -1.01767       -3.00722       -0.32172
H         -5.72298        3.85387        1.58121
H         -7.08100        2.72325        1.26425
H         -6.27829        3.54962       -0.09685
