35
COMP21_000200.log	Energy: -1829844.4653132
C         -1.94074       -0.03862        0.00615
C         -0.46996        0.02809        0.06558
C          0.40430       -0.65180       -0.71174
H          0.07603       -1.34102       -1.48023
C          1.78480       -0.36955       -0.41114
C          2.93511       -0.89378       -1.01771
C          2.89594       -1.88600       -2.14766
C          4.14897       -0.43851       -0.51261
S          5.72626       -0.93653       -1.09501
C          6.51209        0.09286        0.06879
H          7.59297        0.12981        0.10032
C          5.65034        0.77511        0.85232
H          5.97759        1.45902        1.62574
C          4.26480        0.49704        0.54861
C          3.11413        1.02140        1.15356
C          3.15001        2.01325        2.28410
C          1.89944        0.56671        0.64801
S          0.32706        1.06991        1.22894
C         -2.68836        1.12438       -0.37898
N         -2.16692        2.30802       -0.70196
S         -3.42014        3.27588       -1.06603
N         -4.66213        2.24986       -0.84015
C         -4.12036        1.09158       -0.46163
C         -4.82758       -0.10313       -0.16356
H         -5.90797       -0.13164       -0.23075
C         -4.10719       -1.19943        0.20126
Cl        -4.96876       -2.66214        0.56801
C         -2.66318       -1.17289        0.29435
Cl        -1.84639       -2.61383        0.80712
H          1.87637       -2.16680       -2.41758
H          3.43391       -2.80308       -1.87943
H          3.37739       -1.47467       -3.04294
H          4.16896        2.29658        2.55370
H          2.67026        1.60036        3.17970
H          2.60933        2.92912        2.01649
