34
COMP43_000020.log	Energy: -836434.1207351
C          0.05420       -0.82349        0.00433
C         -1.27832       -0.19766        0.00192
C         -1.37101        1.20329        0.00659
C         -2.60059        1.84980        0.00403
O         -2.75139        3.19891        0.00820
C         -1.57770        3.98633        0.01408
C         -3.77417        1.09643       -0.00310
H         -4.73095        1.60752       -0.00515
C         -3.70771       -0.28688       -0.00754
C         -2.47510       -0.94137       -0.00490
O         -2.35723       -2.29386       -0.00850
C         -3.51993       -3.09093       -0.01673
C          1.31062       -0.24414        0.00187
C          1.94426        1.10841       -0.00772
O          1.46586        2.22577       -0.01297
N          3.32439        0.87881       -0.01203
C          4.30898        1.93797       -0.01388
C          3.67119       -0.47591        0.00034
O          4.80349       -0.89975        0.00241
C          2.37556       -1.18685        0.00693
C          1.98215       -2.48057        0.01384
H          2.59262       -3.37324        0.01784
S          0.26397       -2.57354        0.01366
H         -0.45570        1.77983        0.01094
H         -1.91467        5.02364        0.01460
H         -0.96277        3.79954       -0.87445
H         -0.97002        3.79664        0.90704
H         -4.63009       -0.85516       -0.01304
H         -4.12158       -2.90808       -0.91533
H         -4.13036       -2.91411        0.87716
H         -3.17111       -4.12397       -0.01851
H          3.79657        2.87270       -0.24250
H          5.06877        1.72759       -0.76945
H          4.79447        2.01678        0.96309
