40
COMP26_000200.log	Energy: -1403366.4255516
C         -1.77009       -0.16366       -0.18060
C         -0.30674       -0.35766       -0.33973
C          0.57748        0.34369        0.48804
C          1.94003        0.17423        0.32087
C          3.07428        0.82834        1.09543
C          3.04749        2.35714        0.92934
C          3.02635        0.45047        2.58486
C          4.28803        0.21965        0.40803
C          5.63154        0.43411        0.67547
C          6.58869       -0.23331       -0.08942
H          7.64433       -0.07339        0.10910
C          6.20209       -1.10412       -1.10869
C          4.85372       -1.32209       -1.38070
C          3.90177       -0.65501       -0.61691
C          2.43436       -0.68179       -0.67212
C          1.56312       -1.37268       -1.50685
C          0.19368       -1.20598       -1.33357
C         -2.32294        1.15200       -0.34291
N         -1.62682        2.25399       -0.62806
S         -2.70338        3.46815       -0.71182
N         -4.08220        2.66451       -0.39662
C         -3.73287        1.39096       -0.21148
C         -4.61652        0.31974        0.08477
H         -5.68034        0.49597        0.18227
C         -4.08041       -0.92144        0.24274
Cl        -5.15435       -2.23646        0.61198
C         -2.66000       -1.16730        0.11742
Cl        -2.08048       -2.78106        0.39694
H          0.18873        1.01396        1.24955
H          2.13469        2.77669        1.36634
H          3.08060        2.63409       -0.12853
H          3.90667        2.81340        1.43342
H          2.11504        0.84018        3.05184
H          3.88610        0.87385        3.11574
H          3.04269       -0.63591        2.71372
H          5.93992        1.11240        1.46720
H          6.95950       -1.61647       -1.69449
H          4.55547       -2.00158       -2.17437
H          1.93684       -2.03202       -2.28486
H         -0.49911       -1.73489       -1.98064
