28
COMP32_420000.log	Energy: -1758281.8189600
C         -2.54351        0.10961       -0.09106
C         -1.13469       -0.29270        0.00381
C         -0.61395       -1.40418        0.62921
O         -1.27236       -2.36518        1.30167
C          0.81338       -1.44498        0.56207
Cl         1.71483       -2.71652        1.29876
C          1.36518       -0.39223       -0.11189
S          0.13455        0.67742       -0.68737
C          2.77502       -0.12674       -0.38696
S          3.68151       -1.11994       -1.48198
C          5.10818       -0.17730       -1.25312
H          6.02488       -0.43552       -1.76570
C          4.90198        0.85272       -0.38298
O          5.78580        1.78508        0.03430
C          3.55841        0.87899        0.10908
Cl         3.02753        2.06606        1.24188
C         -2.95199        1.43774        0.08556
F         -2.05324        2.38646        0.34629
C         -4.28815        1.80643       -0.00125
F         -4.61232        3.08574        0.17791
C         -5.27686        0.87083       -0.25496
H         -6.31777        1.16287       -0.31565
C         -4.89627       -0.44803       -0.42813
F         -5.80850       -1.38601       -0.67929
C         -3.55978       -0.81146       -0.35827
F         -3.25162       -2.11097       -0.55011
H         -2.14524       -2.49392        0.90638
H          6.64302        1.61628       -0.37410
