36
COMP61_100010.log	Energy: -1222096.4553657
C          2.12366        0.59034       -0.18571
C          0.68489        0.39046       -0.18027
C         -0.28430        1.17490        0.35974
F         -0.04958        2.31775        1.00789
C         -1.62075        0.67907        0.23064
C         -2.80556        1.26243        0.68118
H         -2.79063        2.21325        1.20303
C         -3.98227        0.57629        0.43089
S         -5.60613        1.06772        0.87383
C         -6.27809       -0.37473        0.15673
H         -7.34309       -0.55613        0.17259
C         -5.32772       -1.16518       -0.37779
F         -5.56692       -2.32759       -0.98820
C         -3.98386       -0.66741       -0.25014
C         -2.79999       -1.25128       -0.69433
H         -2.81354       -2.20632       -1.20837
C         -1.61961       -0.56534       -0.44500
S         -0.00342       -1.06932       -0.87651
C          3.11194       -0.33404        0.01721
C          3.34958       -1.72454        0.38971
O          2.61720       -2.67620        0.57530
N          4.77208       -1.78669        0.49981
C          5.46941       -3.00323        0.85019
C          5.34870       -0.56574        0.23201
H          6.42245       -0.44215        0.29202
C          4.37696        0.33259       -0.07281
C          4.13892        1.73493       -0.38388
O          4.87752        2.67434       -0.59450
N          2.71461        1.82359       -0.43263
C          2.06762        3.03990       -0.87943
H          4.71368       -3.78363        0.95543
H          6.00261       -2.89093        1.79944
H          6.17687       -3.29018        0.06634
H          2.81836        3.62346       -1.41480
H          1.69316        3.62785       -0.03924
H          1.23969        2.79908       -1.55097
