40
COMP72_400000.log	Energy: -1670789.1283965
C          0.24036        0.96686        0.33972
C         -0.99924        0.21639        0.36013
C         -1.36092       -0.91021        1.08559
O         -0.56088       -1.65962        1.84633
C         -2.75559       -1.19382        1.01914
H         -3.19848       -2.02686        1.55181
C         -3.45486       -0.30683        0.25168
S         -2.40784        0.89155       -0.43761
C         -4.87568       -0.30022       -0.05720
S         -5.80353       -1.76838       -0.01464
C         -7.24917       -0.92796       -0.45045
H         -8.18511       -1.46043       -0.55166
C         -7.01359        0.40585       -0.63177
O         -7.91201        1.36129       -0.97863
C         -5.65476        0.76908       -0.40559
H         -5.29657        1.78910       -0.47930
C          1.58197        0.60748        0.26042
C          2.12736       -0.74540        0.10476
O          1.43960       -1.76981        0.18071
C          3.57357       -0.83497       -0.15631
C          4.23830       -2.01515       -0.38597
C          3.70465       -3.41162       -0.45842
S          5.92492       -1.70417       -0.60731
C          5.75808        0.00320       -0.38378
C          6.94176        0.91630       -0.44836
C          4.44351        0.31289       -0.15393
C          3.93024        1.67429        0.07034
O          4.63962        2.66852        0.09509
C          2.45841        1.75352        0.23471
C          1.79871        2.93936        0.30319
H          2.24409        3.92445        0.28197
S          0.10503        2.70965        0.40875
H          0.29437       -1.74907        1.36247
H         -8.78129        0.95714       -1.08308
H          3.24306       -3.69149        0.49254
H          4.49558       -4.12818       -0.69484
H          2.92298       -3.48197       -1.21961
H          7.85748        0.36928       -0.68754
H          7.07580        1.43073        0.50742
H          6.78141        1.69159       -1.20256
