46
COMP72_240003.log	Energy: -2484117.3601602
C          0.16440       -1.62205        0.52078
C          1.39709       -0.85706        0.64114
C          1.65659        0.22870        1.42930
Cl         0.54296        0.96518        2.52831
C          2.98266        0.72681        1.30116
O          3.47638        1.78647        1.97684
C          3.74579        0.00197        0.41736
S          2.80682       -1.29693       -0.26703
C          5.12582        0.24179        0.05188
S          6.05765        1.57036        0.69934
C          7.44726        1.12991       -0.20993
H          8.36395        1.69729       -0.14134
C          7.21053        0.02659       -0.96606
Cl         8.36208       -0.73136       -2.02429
C          5.88880       -0.49045       -0.82541
O          5.40748       -1.57674       -1.46844
C         -1.11030       -1.19230        0.23023
C         -1.49878        0.18202       -0.17365
O         -0.70385        1.03974       -0.49805
C         -2.97398        0.41183       -0.20843
C         -3.56853        1.64146       -0.34392
C         -2.94588        2.99610       -0.26366
O         -2.15138        3.33587        0.57293
O         -3.45328        3.79871       -1.20854
C         -2.96594        5.14299       -1.18745
S         -5.27715        1.50178       -0.48828
C         -5.22081       -0.20833       -0.29442
C         -6.49932       -0.96886       -0.17993
O         -6.72127       -1.82500        0.63451
O         -7.39085       -0.51144       -1.07129
C         -8.67916       -1.12930       -1.01079
C         -3.92800       -0.65703       -0.17619
C         -3.49965       -2.08291       -0.09363
O         -4.24580       -3.01930       -0.29435
C         -2.06351       -2.26354        0.22588
C         -1.50147       -3.47788        0.49363
H         -2.00998       -4.43183        0.52398
S          0.17759       -3.33959        0.79435
H          2.75812        2.21887        2.46074
H          6.09402       -1.93865       -2.04624
H         -3.48220        5.65224       -1.99998
H         -1.88593        5.15431       -1.34968
H         -3.19041        5.61592       -0.22859
H         -9.26933       -0.64753       -1.78900
H         -9.13221       -0.97332       -0.02890
H         -8.59120       -2.20133       -1.19963
