48
COMP92_140000.log	Energy: -1555071.9859188
C         -0.59001        0.07359        0.10469
C          0.84780        0.30658        0.27449
C          1.48057        1.19998        1.08063
F          0.87274        2.11828        1.84153
C          2.89305        1.11043        1.09165
O          3.69329        1.91337        1.83179
C          3.36189        0.10640        0.28196
S          2.02962       -0.71799       -0.48897
C          4.74043       -0.25701        0.03847
S          6.08248        0.61263        0.75084
C          7.24394       -0.40941       -0.01254
H          8.30426       -0.26549        0.13073
C          6.62505       -1.35103       -0.76251
F          7.23031       -2.30573       -1.48783
C          5.20474       -1.28163       -0.74630
O          4.40054       -2.12960       -1.42942
C         -1.03176       -1.27095        0.24208
C         -2.35707       -1.60781        0.18074
C         -2.75593       -3.03335        0.34438
O         -1.93638       -3.91499        0.50743
N         -4.12614       -3.30400        0.29968
C         -4.57240       -4.68705        0.45447
C         -5.13083       -2.34977        0.12761
O         -6.29938       -2.68305        0.11337
C         -4.70386       -0.93484       -0.03444
C         -5.65274        0.04693       -0.21104
H         -6.70140       -0.22895       -0.22716
C         -5.25141        1.38379       -0.36778
C         -3.91529        1.72307       -0.35040
C         -3.54364        3.14851       -0.52966
O         -4.37836        4.02467       -0.65016
N         -2.17931        3.42195       -0.56917
C         -1.75456        4.79705       -0.82398
C         -1.15038        2.47858       -0.45812
O         -0.00601        2.83954       -0.64100
C         -1.53599        1.07098       -0.13768
C         -2.91802        0.73552       -0.16661
C         -3.33222       -0.60507       -0.00612
H          3.15029        2.60438        2.23373
H          4.95285       -2.76468       -1.90452
H         -0.30575       -2.05593        0.42714
H         -3.68932       -5.31420        0.54958
H         -5.15988       -4.98255       -0.41677
H         -5.19950       -4.77553        1.34392
H         -5.98324        2.17209       -0.50585
H         -2.64094        5.42655       -0.80669
H         -1.26170        4.86270       -1.79634
H         -1.04643        5.10823       -0.05453
