60
COMP91_100003.log	Energy: -1794420.4415636
C          0.46614       -0.06155       -0.09885
C         -0.99221       -0.28279       -0.13889
C         -1.72421       -0.91270        0.80398
F         -1.17003       -1.34368        1.94562
C         -3.12657       -1.07469        0.50798
C         -4.14798       -1.65986        1.26785
C         -3.95640       -2.27208        2.62971
C         -5.40759       -1.65920        0.67395
S         -6.84392       -2.33444        1.42280
C         -7.81105       -1.89018        0.04810
H         -8.86922       -2.10528        0.01346
C         -7.08599       -1.27588       -0.90551
F         -7.62915       -0.84675       -2.05194
C         -5.68127       -1.11141       -0.60487
C         -4.65848       -0.52548       -1.36378
C         -4.84786        0.09345       -2.72295
C         -3.39958       -0.52675       -0.77019
S         -1.96791        0.14377       -1.52625
C          1.28303       -1.21863       -0.15215
C          2.65059       -1.12807       -0.17931
C          3.46184       -2.37217       -0.23054
O          2.98791       -3.48700       -0.21912
N          4.84529       -2.18620       -0.29745
C          5.65451       -3.38988       -0.39194
O          5.97697       -3.87986       -1.43308
O          5.94704       -3.81351        0.82383
C          6.74234       -5.00424        0.87043
C          5.53703       -0.97136       -0.28215
O          6.74832       -0.95185       -0.30808
C          4.69294        0.25041       -0.23094
C          5.29670        1.48680       -0.23240
H          6.37873        1.54520       -0.27912
C          4.51004        2.65025       -0.17647
C          3.13755        2.56142       -0.11095
C          2.34542        3.81343       -0.04631
O          2.83063        4.92418       -0.07401
N          0.96804        3.63766        0.06318
C          0.16681        4.84680        0.16007
O         -0.35124        5.36346       -0.78486
O          0.12598        5.24251        1.41889
C         -0.62967        6.43725        1.64972
C          0.26432        2.43005        0.15172
O         -0.92140        2.45166        0.39439
C          1.06911        1.18948       -0.04684
C          2.48649        1.30154       -0.10802
C          3.28321        0.13650       -0.17442
H         -2.95162       -2.11480        3.01567
H         -4.14251       -3.35238        2.59232
H         -4.66798       -1.84332        3.34537
H         -5.85521       -0.05361       -3.10582
H         -4.14236       -0.33841       -3.44307
H         -4.65189        1.17182       -2.68045
H          0.81761       -2.19788       -0.18260
H          6.89116       -5.20985        1.92890
H          7.69807       -4.83562        0.36997
H          6.21300       -5.82694        0.38530
H          4.96805        3.63334       -0.18279
H         -0.55242        6.62414        2.71929
H         -1.67005        6.28320        1.35642
H         -0.20389        7.26538        1.07954
