60
COMP91_200003.log	Energy: -2246694.6134806
C          0.70149       -0.08449       -0.16968
C         -0.76060       -0.31302       -0.12937
C         -1.51373       -0.55805        0.96626
Cl        -0.78678       -0.52559        2.54620
C         -2.91950       -0.79471        0.69174
C         -3.98498       -1.06615        1.56401
C         -3.83487       -1.17000        3.06066
C         -5.22990       -1.23970        0.96169
S         -6.70396       -1.58064        1.85368
C         -7.62319       -1.61895        0.38962
H         -8.68688       -1.81028        0.41487
C         -6.87524       -1.39064       -0.70999
Cl        -7.61498       -1.38581       -2.28506
C         -5.46585       -1.16217       -0.43719
C         -4.39805       -0.89680       -1.30970
C         -4.54661       -0.79579       -2.80669
C         -3.15502       -0.72033       -0.70634
S         -1.68398       -0.38065       -1.60007
C          1.52447       -1.23573       -0.19487
C          2.89146       -1.13210       -0.23288
C          3.71529       -2.36901       -0.25157
O          3.25151       -3.48767       -0.22293
N          5.09748       -2.17082       -0.30668
C          5.91960       -3.36813       -0.36889
O          6.25895       -3.87416       -1.39687
O          6.20212       -3.76533        0.85800
C          7.00847       -4.94703        0.93651
C          5.77722       -0.94921       -0.30472
O          6.98844       -0.91787       -0.31577
C          4.92082        0.26506       -0.28637
C          5.51273        1.50685       -0.29753
H          6.59486        1.57475       -0.32580
C          4.71498        2.66430       -0.27171
C          3.34249        2.56392       -0.23500
C          2.53710        3.80898       -0.20019
O          3.01402        4.92337       -0.19243
N          1.15682        3.62221       -0.17152
C          0.34050        4.82590       -0.17650
O         -0.02768        5.36003       -1.18001
O          0.10118        5.19387        1.06841
C         -0.70938        6.36740        1.20206
C          0.45548        2.41184       -0.13221
O         -0.75294        2.42880       -0.06182
C          1.28711        1.17346       -0.18380
C          2.70352        1.29799       -0.22394
C          3.51106        0.13858       -0.24992
H         -3.12052       -1.94977        3.33692
H         -4.78666       -1.41205        3.53957
H         -3.47959       -0.22976        3.49108
H         -4.94380       -1.72128       -3.23142
H         -3.58644       -0.59827       -3.28967
H         -5.22669        0.01360       -3.08521
H          1.06678       -2.21930       -0.18040
H          7.14800       -5.13062        2.00026
H          7.96773       -4.77879        0.44274
H          6.49225       -5.78418        0.46212
H          5.16502        3.65106       -0.27889
H         -0.81969        6.52186        2.27385
H         -1.68127        6.20531        0.73145
H         -0.21249        7.22058        0.73564
