31
COMP27_000100.log	Energy: -1328969.8202756
C         -2.42354        0.27706       -0.01834
C         -1.00564       -0.06732       -0.09696
C         -0.45440       -1.32369       -0.22911
H         -1.05661       -2.21842       -0.29417
C          0.95634       -1.32189       -0.27931
H          1.54613       -2.22202       -0.40764
C          1.50429       -0.06545       -0.17587
S          0.26260        1.13154       -0.03033
C          2.89997        0.34294       -0.17077
C          3.93389       -0.50055       -0.00607
C          5.33482       -0.11164       -0.04929
C          5.91376        1.04929       -0.50090
H          5.34652        1.86299       -0.93809
C          7.32822        1.06228       -0.36184
H          7.95757        1.89056       -0.66541
C          7.81566       -0.08914        0.18523
H          8.84535       -0.34367        0.39449
S          6.55378       -1.20343        0.54155
C         -3.47220       -0.72287       -0.02092
N         -3.29920       -2.03997       -0.09016
S         -4.77622       -2.72246       -0.05621
N         -5.69934       -1.38769        0.04628
C         -4.86758       -0.34946        0.05856
C         -5.26761        1.01388        0.14270
H         -6.30974        1.29878        0.20410
C         -4.26917        1.92724        0.14460
F         -4.52396        3.23154        0.22029
C         -2.88587        1.56534        0.06622
F         -2.03768        2.59803        0.08229
H          3.09576        1.40540       -0.30034
H          3.73134       -1.55291        0.18332
