54
COMP71_400003.log	Energy: -2004500.9171902
C          0.01857       -1.70324       -0.11392
C         -1.30804       -1.13137       -0.00443
C         -1.86880       -0.09340       -0.71185
O         -1.21323        0.69226       -1.57009
C         -3.30104        0.04598       -0.50590
C         -4.18593        0.98735       -1.05589
C         -3.80093        2.08368       -2.01359
C         -5.51663        0.86287       -0.66139
S         -6.79360        1.92215       -1.22638
C         -7.96513        1.05766       -0.27078
H         -9.00361        1.36277       -0.28449
C         -7.43038        0.03213        0.43153
O         -8.11239       -0.80652        1.25645
C         -5.99881       -0.12238        0.23675
C         -5.11228       -1.05909        0.79009
C         -5.49502       -2.14961        1.75586
C         -3.78516       -0.93913        0.38643
S         -2.50886       -1.98368        0.96929
C          1.29825       -1.15753       -0.16684
C          1.66053        0.24965       -0.03875
O          0.85598        1.18291       -0.08675
C          3.10776        0.53358        0.11131
C          3.61781        1.78695        0.34648
C          2.88106        3.05467        0.64154
O          3.00305        4.06040       -0.01320
O          2.13560        2.92751        1.73497
C          1.27422        4.03286        2.01830
S          5.32646        1.80313        0.23538
C          5.38669        0.11544       -0.12249
C          6.70344       -0.49872       -0.45591
O          6.88229       -1.35210       -1.28314
O          7.67737        0.09373        0.25337
C          9.00372       -0.34331       -0.05343
C          4.12968       -0.43960       -0.13495
C          3.78530       -1.88552       -0.24258
O          4.61081       -2.77531       -0.24452
C          2.32812       -2.16378       -0.24723
C          1.83670       -3.43097       -0.25391
H          2.41516       -4.34399       -0.29262
S          0.12648       -3.44652       -0.16942
H         -0.35098        0.92919       -1.14915
H         -2.72885        2.11222       -2.19085
H         -4.12042        3.05663       -1.62048
H         -4.30717        1.94035       -2.97627
H         -9.04334       -0.55393        1.25720
H         -6.56519       -2.17403        1.94736
H         -4.97699       -2.00986        2.71299
H         -5.19189       -3.12774        1.36231
H          0.78113        3.78366        2.95651
H          0.53941        4.14095        1.21720
H          1.84970        4.95588        2.11557
H          9.65953        0.25278        0.57937
H          9.22483       -0.17337       -1.10972
H          9.11313       -1.40681        0.16964
