41
COMP56_000000.log	Energy: -1076452.5148827
C          1.26326        0.03933       -0.28790
C         -0.16949       -0.28011       -0.25768
C         -1.10234        0.74282       -0.02690
C         -2.45228        0.44483       -0.00717
C         -3.62253        1.38655        0.23610
C         -3.52995        2.04075        1.62443
C         -3.71128        2.46281       -0.85862
C         -4.79710        0.42195        0.15439
C         -6.14898        0.69327        0.29887
C         -7.06522       -0.35242        0.18364
H         -8.12684       -0.15402        0.29710
C         -6.62960       -1.65278       -0.07387
C         -5.27249       -1.92956       -0.22007
C         -4.36102       -0.88515       -0.10394
C         -2.89617       -0.87065       -0.20192
C         -1.98171       -1.89359       -0.42675
C         -0.62512       -1.59147       -0.45672
C          1.86555        1.19387       -0.71511
H          1.33574        2.04108       -1.13439
N          3.22682        1.24249       -0.62335
C          3.69005        0.12925       -0.12898
S          2.48661       -1.05968        0.26825
C          5.10335       -0.13209        0.09425
S          6.31013        1.06323       -0.28322
C          7.51121       -0.04181        0.26638
H          8.56174        0.21134        0.25378
C          6.92834       -1.20068        0.68313
H          7.45863       -2.05943        1.07560
N          5.56356       -1.24847        0.58429
H         -0.75499        1.75589        0.15984
H         -2.64584        2.68463        1.68938
H         -3.46263        1.28173        2.40942
H         -4.41362        2.65891        1.81737
H         -2.82851        3.11160       -0.83582
H         -4.59642        3.09040       -0.70772
H         -3.77888        2.00562       -1.85032
H         -6.49522        1.70425        0.49910
H         -7.35601       -2.45533       -0.16017
H         -4.93649       -2.94349       -0.41920
H         -2.31345       -2.91625       -0.58173
H          0.09355       -2.38243       -0.65258
