28
COMP31_000010.log	Energy: -1134962.9759901
C          2.23548        0.03736       -0.03292
C          0.77083       -0.09290       -0.01947
C         -0.12596        0.85055       -0.40696
H          0.16109        1.81400       -0.80845
C         -1.49372        0.45024       -0.22848
C         -2.65257        1.17111       -0.52588
H         -2.58719        2.16759       -0.95177
C         -3.87468        0.57364       -0.25990
S         -5.46124        1.26199       -0.53600
C         -6.22516       -0.17700        0.08518
H         -7.30532       -0.22918        0.11929
C         -5.34924       -1.12578        0.48063
H         -5.64516       -2.08341        0.89301
C         -3.97440       -0.72959        0.29657
C         -2.81554       -1.44979        0.59039
H         -2.87930       -2.44702        1.01490
C         -1.59229       -0.85077        0.32684
S         -0.01286       -1.54646        0.59161
C          2.85368        1.26422        0.23811
F          2.12296        2.34357        0.52673
C          4.23504        1.40205        0.22125
F          4.76511        2.59642        0.48860
C          5.05794        0.32498       -0.05955
H          6.13506        0.43611       -0.07211
C          4.46470       -0.89703       -0.32329
F          5.21828       -1.96154       -0.60099
C          3.08363       -1.03893       -0.31284
F          2.57366       -2.24297       -0.58130
