38
COMP51_400100.log	Energy: -1721803.6683021
C         -1.38646       -0.45403        0.35858
C          0.06050       -0.35873        0.23665
C          0.81868        0.73687        0.51743
O          0.33662        1.90949        0.99129
C          2.23626        0.55345        0.27409
C          3.29860        1.45378        0.44517
C          3.16128        2.86909        0.94095
C          4.56146        0.96120        0.12373
S          6.03030        1.90758        0.25885
C          6.97743        0.56174       -0.31221
H          8.04991        0.66361       -0.41637
C          6.23531       -0.53519       -0.58819
O          6.71353       -1.72129       -1.04999
C          4.81315       -0.35212       -0.34775
C          3.75068       -1.25248       -0.51587
C          3.88750       -2.66891       -1.00904
C          2.48665       -0.75926       -0.19852
S          1.02284       -1.70968       -0.34043
C         -2.13241       -1.28046        1.15749
F         -1.59944       -2.14233        2.00516
N         -3.47690       -1.20942        1.07868
C         -3.81485       -0.30720        0.19533
S         -2.50042        0.48754       -0.60225
C         -5.19568        0.02882       -0.10800
S         -6.51380       -0.77172        0.68440
C         -7.60250        0.19437       -0.23393
H         -8.67489        0.11495       -0.14310
C         -6.88261        1.02098       -1.04267
F         -7.41951        1.89489       -1.87847
N         -5.53480        0.93841       -0.98216
H         -0.60437        1.80481        1.19033
H          2.12456        3.14669        1.11498
H          3.58933        3.56926        0.21301
H          3.71443        2.99758        1.87954
H          7.67136       -1.65597       -1.14353
H          4.92501       -2.94547       -1.18043
H          3.33643       -2.79966       -1.94871
H          3.45881       -3.36825       -0.28048
