22
COMP33_000010.log	Energy: -539631.9834410
C          0.12392       -0.00014        0.00020
C         -1.36171       -0.00020        0.00007
C         -2.06956        0.85909       -0.84502
C         -3.45957        0.85749       -0.84492
H         -3.99818        1.52749       -1.50799
C         -4.15842       -0.00007       -0.00017
H         -5.24428       -0.00005       -0.00031
C         -3.45980       -0.85760        0.84480
C         -2.06979       -0.85927        0.84521
H         -1.52927       -1.52755        1.50754
C          0.85467        1.18213        0.13227
F          0.22267        2.35062        0.27475
C          2.24379        1.18120        0.13170
F          2.89243        2.33984        0.26701
C          2.95385        0.00022        0.00010
H          4.03686        0.00036        0.00007
C          2.24410       -1.18094       -0.13158
F          2.89305       -2.33937       -0.26711
C          0.85498       -1.18223       -0.13209
F          0.22336       -2.35087       -0.27503
H         -1.52884        1.52737       -1.50718
H         -3.99859       -1.52753        1.50779
