46
COMP77_400002.log	Energy: -1813676.4430063
C          0.51797       -1.13593        0.45770
C         -0.69261       -0.33426        0.57977
C         -0.87922        0.88861        1.16774
H         -0.06545        1.46479        1.58468
C         -2.23353        1.30923        1.13748
O         -2.69141        2.48171        1.64610
C         -3.09158        0.41394        0.53919
S         -2.20335       -0.96920       -0.02420
C         -4.51703        0.58831        0.37317
C         -5.37245       -0.31901       -0.14221
C         -6.78758       -0.08067       -0.36776
C         -7.40955        1.09224       -0.73603
O         -6.80230        2.27919       -0.97846
C         -8.82076        0.96683       -0.89766
H         -9.45681        1.79426       -1.18618
C         -9.25363       -0.30065       -0.65968
H        -10.26799       -0.67171       -0.70754
S         -7.96360       -1.36315       -0.24138
C          1.85813       -0.80378        0.32519
C          2.44962        0.55988        0.28006
O          1.80923        1.58135        0.48024
C          3.89656        0.59775       -0.01250
C          4.61554        1.75347       -0.15363
O          4.13765        2.99198       -0.07684
C          5.02852        4.07719       -0.26390
S          6.32040        1.43597       -0.46643
C          6.03371       -0.29896       -0.39162
O          7.00935       -1.18601       -0.55489
C          8.32028       -0.71667       -0.81576
C          4.71988       -0.58637       -0.15042
C          4.16203       -1.93914       -0.03508
O          4.81687       -2.96435       -0.12237
C          2.69185       -1.96845        0.18484
C          2.00070       -3.14037        0.23011
H          2.41783       -4.13396        0.14245
S          0.32736       -2.87092        0.44671
H         -1.94260        2.99841        1.96500
H         -4.89506        1.53572        0.75379
H         -4.99414       -1.30113       -0.42751
H         -5.84691        2.12914       -1.02979
H          4.42382        4.97776       -0.16496
H          5.48108        4.04835       -1.26261
H          5.81381        4.07791        0.50190
H          8.93978       -1.60777       -0.90776
H          8.68864       -0.09804        0.01180
H          8.35493       -0.14725       -1.75262
