32
COMP37_240000.log	Energy: -1806839.9255844
C         -3.39185       -0.22570       -0.01126
C         -2.03526        0.33138       -0.03306
C         -1.65913        1.64794       -0.18178
O         -2.44723        2.72334       -0.35487
C         -0.23993        1.80650       -0.19393
Cl         0.48606        3.36275       -0.37868
C          0.46177        0.63882       -0.03868
S         -0.63325       -0.69671        0.10987
C          1.90324        0.49060        0.00648
C          2.54410       -0.66917        0.23742
C          3.97872       -0.88613        0.28741
C          5.06109       -0.10992       -0.05079
Cl         5.00302        1.49656       -0.71130
C          6.33053       -0.73777        0.15749
O          7.52331       -0.16692       -0.10609
C          6.19888       -1.99966        0.65699
H          6.99427       -2.68650        0.90470
S          4.54521       -2.42205        0.87095
C         -3.71828       -1.41662       -0.67320
F         -2.78418       -2.08494       -1.35034
C         -5.00554       -1.93639       -0.64804
F         -5.24970       -3.07284       -1.29841
C         -6.02948       -1.28966        0.02328
H         -7.03263       -1.69712        0.03433
C         -5.73165       -0.10831        0.67911
F         -6.67902        0.55121        1.34433
C         -4.44132        0.39976        0.66820
F         -4.21300        1.54587        1.34263
H         -3.28456        2.58806        0.10958
H          2.45592        1.40904       -0.15352
H          1.95347       -1.56579        0.42274
H          7.37700        0.72507       -0.45125
