57
COMP89_000000.log	Energy: -1364341.0603258
C         -0.88226        0.01307        0.00762
C         -2.34776       -0.00421        0.03603
C         -3.20028        1.03387        0.33371
C         -4.56112        0.65641        0.26297
C         -4.72929       -0.66239       -0.08695
S         -3.23590       -1.46729       -0.34396
C         -6.14509       -0.95647       -0.13131
C         -6.84494        0.18150        0.19304
C         -5.90214        1.34101        0.47706
C         -6.05142        1.85271        1.91846
C         -6.10704        2.48539       -0.52968
C         -8.25083       -0.01656        0.17492
C         -8.57583       -1.30124       -0.16245
H         -9.56155       -1.73603       -0.25500
S         -7.17865       -2.28800       -0.46436
C         -0.12851       -1.13789        0.26563
C          1.26304       -1.12793        0.23603
C          1.94667        0.05436       -0.04824
C          3.36187        0.46304       -0.10532
C          3.31835        1.95841       -0.38525
O          4.22879        2.75073       -0.54071
N          1.99222        2.30581       -0.49711
C          1.54240        3.64482       -0.78144
C          1.16903        1.20938       -0.27769
C         -0.21067        1.21406       -0.27249
C          4.52573       -0.23928        0.00444
C          4.57851       -1.75950       -0.00663
O          3.67453       -2.57022       -0.09534
N          5.90528       -2.11339        0.05086
C          6.36595       -3.47885        0.04469
C          6.71898       -0.99062        0.14296
C          8.09627       -0.98106        0.27671
C          8.72601        0.25774        0.39624
H          9.80595        0.29930        0.50277
C          7.98201        1.43262        0.38891
C          6.59423        1.40593        0.24727
C          5.93701        0.18318        0.10716
H         -2.84569        2.01775        0.62121
H         -5.91164        1.04024        2.63733
H         -7.04711        2.28362        2.07107
H         -5.30914        2.63107        2.12745
H         -6.00391        2.12192       -1.55620
H         -5.36669        3.27650       -0.36603
H         -7.10425        2.92435       -0.41455
H         -8.99130        0.74277        0.39893
H         -0.63528       -2.06579        0.51322
H          1.81069       -2.03720        0.42695
H          2.42815        4.27199       -0.88707
H          0.92045        4.02531        0.03623
H          0.96558        3.66906       -1.71220
H         -0.76427        2.11863       -0.50090
H          5.49004       -4.12111       -0.05211
H          6.88982       -3.71491        0.97751
H          7.04161       -3.65320       -0.79937
H          8.66393       -1.90566        0.29582
H          8.48264        2.38995        0.49156
H          6.03222        2.32624        0.23012
