42
COMP67_420002.log	Energy: -1863754.9958434
C          2.85377       -0.53590        0.08269
C          1.48773       -0.89556       -0.22382
C          0.98066       -1.99652       -0.87234
Cl         1.89610       -3.26835       -1.60098
C         -0.43548       -1.97484       -1.00227
O         -1.17336       -2.92971       -1.60176
C         -1.00513       -0.84702       -0.45489
S          0.20936        0.18587        0.22341
C         -2.42145       -0.54906       -0.44387
C         -2.97323        0.62299       -0.06806
C         -4.40161        0.86744        0.01531
C         -5.39522       -0.02396        0.35216
O         -5.24422       -1.31993        0.69060
C         -6.69208        0.57729        0.35617
Cl        -8.12117       -0.31272        0.74636
C         -6.67250        1.89937        0.03849
H         -7.51757        2.56892       -0.03031
S         -5.07322        2.45113       -0.26815
C          3.47937        0.67937        0.02080
C          3.28830        2.04050       -0.47141
O          2.34076        2.66496       -0.89646
N          4.59591        2.58671       -0.28689
O          4.94611        3.83482       -0.70647
C          4.48081        4.82717        0.21370
C          5.50547        1.68453        0.20773
H          6.53962        1.97129        0.33730
C          4.85201        0.51303        0.42583
C          5.07084       -0.87374        0.81371
O          5.99672       -1.47806        1.30194
N          3.79766       -1.46014        0.51471
O          3.47460       -2.71342        0.93794
C          3.16695       -2.71967        2.33530
H         -0.58530       -3.61700       -1.94649
H         -3.04944       -1.35214       -0.82490
H         -2.32290        1.45498        0.20371
H         -4.30539       -1.48720        0.85921
H          4.81484        5.77550       -0.20863
H          4.92880        4.67582        1.20220
H          3.39012        4.80597        0.27715
H          2.91580       -3.75675        2.55972
H          2.30730       -2.07192        2.54284
H          4.03703       -2.40923        2.92018
