29
COMP22_320100.log	Energy: -1972909.1664144
C          2.35548        0.58419       -0.06185
C          0.96351        0.22862       -0.36229
C          0.52937       -0.85423       -1.09489
C          1.40530       -1.76447       -1.75869
N          2.12269       -2.48483       -2.31425
C         -0.89702       -0.93418       -1.15233
Cl        -1.72265       -2.19090       -1.99167
C         -1.52674        0.07183       -0.47397
S         -0.36464        1.14015        0.24368
C         -2.96180        0.30284       -0.32789
S         -3.92037        0.90791       -1.64535
C         -5.34674        0.88364       -0.70701
H         -6.29479        1.19236       -1.12498
C         -5.11903        0.43786        0.56823
C         -6.13966        0.31834        1.55930
N         -6.97549        0.22667        2.35637
C         -3.74081        0.10552        0.77871
Cl        -3.14643       -0.49785        2.27770
C          3.25556       -0.36967        0.52470
N          2.93887       -1.60671        0.89450
S          4.29960       -2.27154        1.48417
N          5.33092       -1.02604        1.31258
C          4.63196       -0.02997        0.77085
C          5.12983        1.26823        0.45882
H          6.16298        1.53637        0.64035
C          4.24980        2.15235       -0.07137
F          4.61645        3.38987       -0.39310
C          2.87936        1.81628       -0.32981
F          2.13283        2.77557       -0.86968
