42
COMP51_400420.log	Energy: -1786018.7503340
C         -1.62788       -0.23623       -0.38092
C         -0.18728       -0.07561       -0.28417
C          0.69465       -1.07652        0.00883
O          0.36421       -2.35883        0.29125
C          2.07589       -0.65331        0.00557
C          3.24576       -1.38430        0.24507
O          3.25615       -2.72127        0.50854
C          2.97150       -3.05452        1.86370
C          4.45658       -0.70644        0.16098
S          6.01983       -1.45024        0.38627
C          6.80363        0.08312        0.09333
H          7.88368        0.14828        0.12420
C          5.93825        1.09125       -0.17075
O          6.24931        2.38375       -0.44378
C          4.55212        0.67312       -0.13753
C          3.37993        1.40698       -0.36059
O          3.36878        2.73022       -0.68667
C          3.52539        3.61380        0.41863
C          2.17070        0.72663       -0.29228
S          0.61537        1.46486       -0.58230
C         -2.29976       -1.15541       -1.16031
O         -1.73927       -2.06431       -1.97872
N         -3.65516       -1.14589       -1.08225
C         -4.04924       -0.21177       -0.26038
S         -2.79617        0.71586        0.49265
C         -5.44949        0.06119        0.02134
S         -6.71446       -0.83465       -0.75139
C         -7.85732        0.11201        0.12738
H         -8.92160       -0.03968        0.01767
C         -7.19874        1.01495        0.91960
O         -7.73351        1.92869        1.75379
N         -5.84014        0.98262        0.85744
H         -0.59898       -2.41738        0.38094
H          3.11774       -4.13211        1.94840
H          1.93613       -2.80532        2.11526
H          3.65939       -2.53653        2.54291
H          7.20947        2.47745       -0.45432
H          3.42210        4.62180        0.01474
H          4.51490        3.50045        0.87175
H          2.74567        3.43791        1.16995
H         -0.79327       -1.87116       -2.05744
H         -8.69499        1.86618        1.71574
