36
COMP74_200002.log	Energy: -2198969.7163514
C          0.49868       -1.58484       -0.31054
C          1.78827       -0.91224       -0.14550
C          2.52851       -0.81412        0.99748
Cl         2.05911       -1.47724        2.52158
C          3.73072       -0.07847        0.80621
S          5.05717        0.39290        1.81136
C          5.81745        1.19131        0.46870
H          6.76669        1.69150        0.59834
C          5.09208        1.09674       -0.67791
Cl         5.56735        1.78018       -2.19501
C          3.88276        0.36492       -0.49166
S          2.55959       -0.10803       -1.49465
C         -0.76604       -1.05318       -0.25516
C         -1.07964        0.38302       -0.00733
O         -0.21116        1.22298        0.15081
C         -2.52280        0.68198        0.02386
C         -3.04228        1.92957        0.23385
O         -2.34428        3.04068        0.43988
C         -3.03978        4.26169        0.61920
S         -4.80378        1.92442        0.20729
C         -4.81492        0.18973       -0.09734
O         -5.94404       -0.49711       -0.23342
C         -7.17804        0.19225       -0.14029
C         -3.55078       -0.32497       -0.16920
C         -3.24093       -1.74190       -0.41843
O         -4.07949       -2.61088       -0.58656
C         -1.78528       -2.04130       -0.44508
C         -1.27820       -3.29338       -0.64331
H         -1.84612       -4.19936       -0.80566
S          0.43234       -3.29463       -0.60134
H         -2.27171        5.01974        0.76700
H         -3.68796        4.22011        1.50316
H         -3.63333        4.51023       -0.26911
H         -7.94968       -0.56479       -0.27410
H         -7.26630        0.94933       -0.92898
H         -7.29350        0.66241        0.84401
