28
COMP52_010100.log	Energy: -1654782.8223204
C          0.73110       -0.11876       -0.00097
C         -0.65732        0.28865       -0.00105
C         -1.14673        1.56973       -0.00214
H         -0.54489        2.47042       -0.00337
C         -2.55687        1.58587       -0.00164
F         -3.24759        2.73179       -0.00267
C         -3.16509        0.35868       -0.00018
S         -1.94524       -0.88385        0.00056
C         -4.58191        0.06298        0.00053
S         -5.81391        1.29602       -0.00139
C         -7.07597        0.12269        0.00086
H         -8.10770        0.44538        0.00048
C         -6.60294       -1.15385        0.00291
H         -7.21049       -2.04928        0.00452
C         -5.18624       -1.16641        0.00269
F         -4.48788       -2.30844        0.00449
C          1.27071       -1.38046       -0.00233
F          0.53287       -2.48289       -0.00396
N          2.60982       -1.50755       -0.00212
C          3.15862       -0.32238       -0.00040
S          2.05075        1.01317        0.00103
C          4.59258       -0.10271        0.00022
S          5.71207       -1.42817       -0.00169
C          7.00230       -0.28800        0.00028
H          8.04171       -0.57813        0.00002
C          6.47816        0.96909        0.00214
F          7.20352        2.07585        0.00398
N          5.13189        1.08745        0.00214
