44
COMP82_020001.log	Energy: -1818561.6916408
C         -0.41284        0.43490       -0.14620
C         -1.87612        0.55795       -0.18309
C         -2.61632        1.53399       -0.79364
H         -2.19290        2.34682       -1.37037
C         -4.01269        1.33355       -0.63556
Cl        -5.17841        2.40965       -1.33435
C         -4.34590        0.21731        0.08515
S         -2.90241       -0.60003        0.59851
C         -5.66873       -0.28210        0.44864
S         -6.67961        0.56930        1.57769
C         -7.92442       -0.60967        1.45016
H         -8.84314       -0.49424        2.00859
C         -7.59470       -1.61649        0.59532
H         -8.23016       -2.46057        0.36009
C         -6.30326       -1.42163        0.02892
Cl        -5.62242       -2.53450       -1.11240
C          0.21215       -0.81568       -0.11344
C          1.59818       -0.94019       -0.09405
C          2.40136        0.20103       -0.11791
C          3.85385        0.46292       -0.04629
C          3.97215        1.98118       -0.00774
O          4.95411        2.69455        0.03355
N          2.68949        2.46693       -0.08364
H          2.49873        3.45639       -0.08517
C          1.74682        1.45160       -0.12862
C          0.37443        1.59486       -0.14284
C          4.93461       -0.36884       -0.05022
C          4.83362       -1.85688       -0.36893
O          3.86656       -2.53511       -0.65381
N          6.11496       -2.34327       -0.33112
H          6.31885       -3.31104       -0.52370
C          7.03863       -1.36274        0.00470
C          8.40099       -1.52467        0.17810
C          9.14187       -0.40515        0.55374
H         10.21406       -0.49966        0.69669
C          8.51734        0.82236        0.75258
C          7.14314        0.96992        0.56973
C          6.37543       -0.12912        0.17679
H         -0.39151       -1.71807       -0.13226
H          2.05042       -1.91919       -0.08623
H         -0.08409        2.57822       -0.11723
H          8.87225       -2.49151        0.03233
H          9.10454        1.68457        1.05158
H          6.67507        1.93057        0.71501
