46
COMP72_310003.log	Energy: -2053187.3258689
C          0.27920       -1.69437        0.55085
C          1.52324       -0.94065        0.66966
C          1.79305        0.07944        1.55192
C          0.87217        0.56447        2.52480
N          0.11921        0.93294        3.32425
C          3.11128        0.57902        1.38078
F          3.59016        1.56861        2.13055
C          3.84527       -0.03992        0.40779
S          2.87807       -1.27654       -0.34383
C          5.21096        0.24101        0.01400
S          6.17814        1.48659        0.75687
C          7.52418        1.13615       -0.24013
H          8.44421        1.69441       -0.14038
C          7.27202        0.11380       -1.11601
C          8.20439       -0.39596       -2.06744
N          8.96290       -0.80895       -2.83968
C          5.94600       -0.38280       -0.95451
F          5.47305       -1.38034       -1.69867
C         -0.98974       -1.22536        0.30544
C         -1.34500        0.17608       -0.04472
O         -0.51305        1.01676       -0.31399
C         -2.81126        0.43419       -0.13898
C         -3.38282        1.67322       -0.30628
C         -2.76427        3.02455       -0.16697
O         -1.91659        3.31717        0.63268
O         -3.34294        3.88418       -1.01920
C         -2.88337        5.23475       -0.92174
S         -5.07575        1.55190       -0.58529
C         -5.04268       -0.16325       -0.47173
C         -6.28801       -0.93408       -0.76363
O         -6.34111       -1.92028       -1.44899
O         -7.34747       -0.32475       -0.21386
C         -8.61024       -0.93887       -0.48658
C         -3.77531       -0.62597       -0.20751
C         -3.41882       -2.03669        0.11589
O         -4.23764       -2.92090        0.25798
C         -1.96932       -2.26705        0.33051
C         -1.43236       -3.49720        0.58157
H         -1.96672       -4.43550        0.64324
S          0.26105       -3.41126        0.80585
H         -3.45133        5.79001       -1.66674
H         -1.81331        5.28585       -1.13424
H         -3.06916        5.63009        0.07965
H         -9.35298       -0.29781       -0.01417
H         -8.63959       -1.94334       -0.05876
H         -8.78015       -1.00153       -1.56380
