42
COMP92_040001.log	Energy: -1381246.8668257
C         -0.50725        0.15181        0.14515
C          0.93592        0.39553        0.27496
C          1.59654        1.32317        1.03321
H          1.09880        2.10002        1.59948
C          3.00046        1.16804        0.99026
O          3.89159        1.94826        1.65984
C          3.42964        0.11858        0.20483
S          2.05764       -0.70086       -0.47987
C          4.79386       -0.26991       -0.07979
S          6.17621        0.62409        0.50498
C          7.27057       -0.45459       -0.26391
H          8.33664       -0.29830       -0.17426
C          6.63368       -1.45411       -0.93507
H          7.14056       -2.24130       -1.48297
C          5.21850       -1.34525       -0.82769
O          4.32304       -2.19778       -1.39180
C         -0.91280       -1.20920        0.26407
C         -2.22403       -1.58881        0.22781
C         -2.56703       -3.02940        0.38260
O         -1.74456       -3.90894        0.52434
N         -3.92568       -3.31563        0.35370
H         -4.17537       -4.29242        0.45782
C         -4.98716       -2.43142        0.20363
O         -6.13309       -2.82920        0.20090
C         -4.60917       -1.00035        0.04977
C         -5.59915       -0.05852       -0.11352
H         -6.63575       -0.37717       -0.12258
C         -5.24915        1.28985       -0.27274
C         -3.92682        1.67833       -0.26105
C         -3.61929        3.11324       -0.46222
O         -4.45719        3.97951       -0.61051
N         -2.26952        3.40561       -0.48459
H         -2.02669        4.37402       -0.65854
C         -1.17639        2.55791       -0.31730
O         -0.06439        3.03467       -0.40899
C         -1.49769        1.12167       -0.05255
C         -2.87770        0.73669       -0.08070
C         -3.24528       -0.62142        0.06796
H          3.46189        2.77004        1.92333
H          4.79119       -2.87414       -1.89375
H         -0.16376       -1.97815        0.42230
H         -6.00760        2.05268       -0.41271
