38
COMP61_300010.log	Energy: -1213316.0155477
C         -2.26278       -0.45559       -0.34705
C         -0.80980       -0.35282       -0.27331
C          0.08162       -1.23470        0.28026
C         -0.27248       -2.44425        0.94475
N         -0.50908       -3.43633        1.49726
C          1.45125       -0.78153        0.20526
C          2.59638       -1.42533        0.67321
H          2.52575       -2.39056        1.16498
C          3.80888       -0.78263        0.48333
S          5.38819       -1.36500        0.96978
C          6.14957        0.04830        0.32887
H          7.22292        0.16427        0.39752
C          5.27597        0.92837       -0.22811
C          5.65897        2.16631       -0.82530
N          5.93257        3.17850       -1.32028
C          3.89981        0.47906       -0.15647
C          2.75554        1.12420       -0.61853
H          2.82480        2.09316       -1.10294
C          1.54020        0.48179       -0.42824
S         -0.03305        1.07035       -0.90210
C         -3.18365        0.49424       -0.00762
C         -3.32653        1.81732        0.59858
O         -2.52701        2.66599        0.93519
N         -4.74029        1.95773        0.72660
C         -5.35593        3.14504        1.27701
C         -5.39648        0.84029        0.26317
H         -6.47635        0.78075        0.31222
C         -4.48943       -0.06066       -0.19740
C         -4.34511       -1.41091       -0.72690
O         -5.14223       -2.24932       -1.08860
N         -2.92842       -1.59162       -0.78474
C         -2.36315       -2.77225       -1.40970
H         -4.55063        3.84399        1.50925
H         -5.90384        2.91287        2.19533
H         -6.03460        3.60493        0.55259
H         -3.10589       -3.15526       -2.11175
H         -2.14158       -3.54658       -0.67158
H         -1.44952       -2.51007       -1.94816
