36
COMP29_000300.log	Energy: -1344859.1433884
C         -1.81501        0.09917        0.01071
C         -0.36140        0.07855        0.07174
C          0.47175        1.09177        0.51259
C          1.83148        0.77598        0.36482
C          2.02913       -0.47169       -0.18963
S          0.56851       -1.29862       -0.50714
C          3.44963       -0.70564       -0.30731
C          4.12045        0.39849        0.16635
C          3.15392        1.46806        0.65000
C          3.28994        2.76402       -0.16623
C          3.33152        1.74810        2.15145
C          5.53003        0.25830        0.08149
C          5.88477       -0.94863       -0.45505
H          6.88165       -1.32771       -0.63418
S          4.51594       -1.93220       -0.86602
C         -2.58864       -1.10813        0.17246
N         -2.08202       -2.32367        0.37010
S         -3.33894       -3.34332        0.49039
N         -4.57250       -2.30275        0.30798
C         -4.02590       -1.09856        0.13961
C         -4.73968        0.11364       -0.04933
H         -5.82244        0.12107       -0.06489
C         -4.00620        1.25398       -0.21283
C         -4.70352        2.49448       -0.41562
N         -5.29343        3.47868       -0.57376
C         -2.55655        1.25493       -0.20331
C         -1.91985        2.51145       -0.46870
N         -1.43803        3.54240       -0.69066
H          0.10506        2.01741        0.93708
H          3.16294        2.56733       -1.23453
H          4.27689        3.21305       -0.01037
H          2.53129        3.49152        0.14106
H          3.23543        0.82733        2.73408
H          2.57646        2.46146        2.49891
H          4.31938        2.18022        2.34424
H          6.25186        1.00217        0.39789
