32
COMP52_040400.log	Energy: -1594511.8943792
C         -0.73584       -0.12506        0.25137
C          0.65827        0.27751        0.25100
C          1.18631        1.49179        0.59731
H          0.58705        2.32436        0.95221
C          2.60098        1.52885        0.47913
O          3.37625        2.60563        0.77174
C          3.16644        0.34803        0.05549
S          1.90914       -0.82434       -0.25220
C          4.57046        0.05349       -0.14114
S          5.83284        1.22874        0.13305
C          7.05510        0.10762       -0.31882
H          8.09465        0.40423       -0.30480
C          6.54462       -1.10714       -0.66222
H          7.14527       -1.95494       -0.97449
C          5.12521       -1.13430       -0.55954
O          4.34093       -2.21256       -0.83200
C         -1.28643       -1.33679        0.61891
O         -0.63533       -2.42955        1.05357
N         -2.63871       -1.43114        0.54436
C         -3.15165       -0.30603        0.12897
S         -2.01707        0.95531       -0.21443
C         -4.57885       -0.09469       -0.04237
S         -5.72074       -1.35695        0.28103
C         -6.98190       -0.26537       -0.16059
H         -8.02127       -0.56045       -0.13937
C         -6.44392        0.94391       -0.51210
O         -7.09611        2.05314       -0.91598
N         -5.08849        1.03698       -0.44453
H          2.81617        3.35015        1.01793
H          4.88358       -2.92601       -1.18547
H          0.30276       -2.22012        1.17418
H         -8.04334        1.87331       -0.92906
