59
COMP76_000032.log	Energy: -1578000.0992489
C          0.78531        2.50033        0.01772
C         -0.64172        2.21722       -0.21037
C         -1.21757        1.10333        0.40987
C         -2.51519        0.76976        0.09574
C         -3.27169       -0.47811        0.51804
C         -2.39345       -1.66850        0.10442
O         -1.69986       -2.27932        0.88275
O         -2.41366       -1.86224       -1.20965
C         -1.40535       -2.74896       -1.70886
C         -3.47293       -0.56123        2.03357
O         -3.01145        0.20213        2.84171
O         -4.23729       -1.61397        2.34770
C         -4.43387       -1.82712        3.74484
C         -4.57959       -0.32586       -0.24931
C         -5.67672       -1.17175       -0.28115
C         -6.77458       -0.81303       -1.06303
H         -7.64255       -1.46458       -1.09867
C         -6.76926        0.37241       -1.79777
C         -5.66465        1.22039       -1.76887
C         -4.56858        0.86442       -0.99171
C         -3.27575        1.53240       -0.79663
C         -2.73298        2.67921       -1.36274
C         -1.41195        3.01027       -1.06893
C          1.86446        1.64662       -0.06557
C          1.83059        0.23419       -0.53870
O          0.82988       -0.29883       -0.98929
C          3.12321       -0.47284       -0.42746
C          3.27838       -1.81042       -0.65341
O          2.34337       -2.65666       -1.08196
C          2.46920       -4.02541       -0.72927
S          4.94264       -2.33322       -0.39121
C          5.41172       -0.69069        0.03363
O          6.65463       -0.37871        0.38328
C          7.62523       -1.40904        0.44081
C          4.35627        0.17636       -0.02849
C          4.42161        1.60830        0.30528
O          5.44792        2.19821        0.59842
C          3.10228        2.29205        0.27771
C          2.94620        3.60879        0.59358
H          3.72707        4.29930        0.88063
S          1.30096        4.08268        0.50614
H         -0.63733        0.48975        1.08884
H         -1.59060       -2.81926       -2.78009
H         -1.49836       -3.73096       -1.23826
H         -0.41696       -2.32483       -1.51407
H         -5.06192       -2.71414        3.82038
H         -4.92866       -0.96489        4.19796
H         -3.47386       -1.99245        4.23901
H         -5.68198       -2.09031        0.29553
H         -7.63419        0.63650       -2.39911
H         -5.66117        2.14142       -2.34484
H         -3.30799        3.29054       -2.05178
H         -0.95694        3.87304       -1.54745
H          1.55579       -4.50601       -1.07797
H          2.55789       -4.14396        0.35584
H          3.33270       -4.48341       -1.22840
H          8.55393       -0.92384        0.73810
H          7.75630       -1.88062       -0.54097
H          7.35124       -2.16597        1.18537
