39
COMP43_000032.log	Energy: -1025788.4050297
C          0.40643        0.62428        0.73477
C         -0.97345        0.71881        0.21891
C         -1.78573       -0.40843        0.35319
C         -3.11694       -0.37984       -0.05319
C         -4.00664       -1.57427        0.06608
O         -5.16768       -1.58741       -0.27261
O         -3.37273       -2.62941        0.59129
C         -4.15841       -3.81383        0.72446
C         -3.65945        0.79101       -0.57950
H         -4.70234        0.80179       -0.87700
C         -2.85943        1.91334       -0.72445
C         -1.51401        1.88410       -0.35401
C         -0.72889        3.12330       -0.66055
O         -1.21158        4.23116       -0.69470
O          0.55015        2.86022       -0.95068
C          1.36173        3.99880       -1.24004
C          1.38108       -0.26542        0.40543
C          1.54428       -1.37538       -0.56595
O          0.77954       -1.86413       -1.35781
N          2.88312       -1.77048       -0.36961
O          3.39416       -2.87951       -0.96681
C          4.03556       -2.53640       -2.19719
C          3.58884       -1.08836        0.64099
O          4.73028       -1.29602        0.96283
C          2.59463       -0.09818        1.12797
C          2.55440        0.90804        2.03573
H          3.32437        1.24485        2.71604
S          0.99655        1.66103        2.01091
H         -1.37375       -1.31333        0.78343
H         -3.48109       -4.56951        1.12018
H         -4.55387       -4.12128       -0.24621
H         -4.99017       -3.64380        1.41244
H         -3.25972        2.82976       -1.14395
H          2.36176        3.60408       -1.41467
H          1.36236        4.69203       -0.39559
H          0.98950        4.51502       -2.12782
H          4.42448       -3.47944       -2.58286
H          4.85853       -1.83774       -2.01812
H          3.31202       -2.11423       -2.90126
