46
COMP94_400002.log	Energy: -1476294.9458435
C         -0.40464       -0.10302       -0.08857
C         -1.86240       -0.28604       -0.10256
C         -2.82756        0.17224        0.77464
O         -2.66936        1.07111        1.75538
C         -4.07853       -0.47759        0.56905
S         -5.64222       -0.32238        1.28991
C         -6.27753       -1.51014        0.18154
H         -7.31780       -1.80072        0.24660
C         -5.34276       -1.98684       -0.69180
O         -5.49546       -2.90515       -1.67480
C         -4.06662       -1.39456       -0.45533
S         -2.51614       -1.50761       -1.20482
C          0.34284       -1.32155       -0.07073
C          1.70637       -1.35231       -0.04580
C          2.39313       -2.67326        0.01872
O          1.80994       -3.73106        0.07417
N          3.79075       -2.60570        0.02212
O          4.44887       -3.80296       -0.04937
C          4.71314       -4.31981        1.25633
C          4.59859       -1.46203        0.00597
O          5.80445       -1.54043        0.05791
C          3.86164       -0.16993       -0.06910
C          4.58147        1.00281       -0.13590
H          5.66494        0.95946       -0.12867
C          3.90150        2.22334       -0.23316
C          2.52150        2.26208       -0.23273
C          1.86956        3.58074       -0.38698
O          2.46074        4.63248       -0.48078
N          0.47298        3.52382       -0.40875
O         -0.17359        4.70779       -0.63375
C         -0.38299        5.42775        0.58439
C         -0.34485        2.42208       -0.16344
O         -1.54342        2.61093       -0.01726
C          0.31901        1.09941       -0.10555
C          1.75109        1.07678       -0.13013
C          2.44996       -0.14892       -0.07746
H         -2.19588        1.82490        1.34447
H         -6.41379       -3.19868       -1.70027
H         -0.18734       -2.26672       -0.03383
H          5.23136       -5.26232        1.07799
H          3.77724       -4.50602        1.79100
H          5.36100       -3.63881        1.81613
H          4.44172        3.15979       -0.32012
H         -0.89219        6.34086        0.27577
H          0.57309        5.67538        1.05336
H         -1.02351        4.85661        1.26222
