29
COMP44_200003.log	Energy: -1886748.6167192
C         -0.34480       -1.34095       -0.33147
C          0.96918       -0.73672       -0.15581
C          2.08630       -1.25682        0.45194
Cl         2.17550       -2.78545        1.25401
C          3.19932       -0.37922        0.38706
S          4.83312       -0.42181        0.95688
C          5.12309        1.15612        0.29145
H          6.09525        1.61764        0.39233
C          4.03096        1.68021       -0.32664
Cl         3.98505        3.22979       -1.09082
C          2.91334        0.79657       -0.27785
S          1.28133        0.85408       -0.82332
C         -1.59081       -0.77565       -0.25060
C         -2.16758        0.54553        0.10125
O         -1.61872        1.58335        0.35935
N         -3.57897        0.34973        0.01744
C         -4.54725        1.36909        0.21379
O         -5.52848        1.49157       -0.46604
O         -4.20587        2.12527        1.24907
C         -5.05722        3.25041        1.47944
C         -3.94384       -0.97262       -0.38089
O         -5.06161       -1.39263       -0.49777
C         -2.64765       -1.66793       -0.54458
C         -2.24177       -2.92414       -0.86045
H         -2.83971       -3.79072       -1.10720
S         -0.52280       -3.01595       -0.80580
H         -4.61346        3.77650        2.32294
H         -6.06967        2.91762        1.71855
H         -5.08561        3.89242        0.59615
