39
COMP76_000011.log	Energy: -1148429.5126158
C          0.65604        1.44453        0.06228
C         -0.76299        1.07201       -0.09017
C         -1.31178        0.02818        0.66693
C         -2.65500       -0.26643        0.53441
C         -3.46693       -1.33436        1.22994
H         -3.07667       -2.33791        1.02086
H         -3.45941       -1.20824        2.31971
C         -4.84702       -1.13041        0.64778
C         -6.02313       -1.81829        0.90793
C         -7.18694       -1.44194        0.23762
H         -8.11520       -1.97107        0.43183
C         -7.17159       -0.39116       -0.68093
C         -5.99376        0.30243       -0.94449
C         -4.83329       -0.07229       -0.27441
C         -3.46929        0.46679       -0.34390
C         -2.93494        1.50724       -1.09463
C         -1.58351        1.80523       -0.95939
C          1.81114        0.69016        0.05174
C          1.90829       -0.77091       -0.20585
O          0.95238       -1.50230       -0.39403
C          3.29713       -1.30023       -0.22047
C          3.60766       -2.61175       -0.43821
H          2.91419       -3.41835       -0.63226
S          5.30472       -2.87458       -0.37052
C          5.61848       -1.21667       -0.04711
H          6.62404       -0.84255        0.08785
C          4.46111       -0.49468        0.00557
C          4.37737        0.95980        0.25619
O          5.35524        1.66105        0.44587
C          2.99311        1.49377        0.24877
C          2.71913        2.81898        0.40730
H          3.43963        3.61013        0.56350
S          1.03615        3.12111        0.32542
H         -0.68000       -0.54100        1.33929
H         -6.04134       -2.63679        1.62258
H         -8.08726       -0.11331       -1.19432
H         -5.98473        1.11881       -1.66132
H         -3.55330        2.08036       -1.77917
H         -1.15051        2.60542       -1.55305
