50
COMP77_320003.log	Energy: -2554019.7074410
C         -0.92570       -2.15030       -0.41058
C          0.40312       -1.81699        0.10325
C          0.87516       -1.97653        1.37375
Cl        -0.05181       -2.64597        2.66074
C          2.21772       -1.51592        1.54155
C          2.93047       -1.55519        2.77555
N          3.52692       -1.57533        3.76926
C          2.75239       -1.00087        0.37632
S          1.61084       -1.10471       -0.91516
C          4.08358       -0.44585        0.22206
C          4.47450        0.28992       -0.83385
C          5.80154        0.84278       -1.04249
C          7.02111        0.52331       -0.47229
C          7.21727       -0.51547        0.48283
N          7.37087       -1.36533        1.25667
C          8.09000        1.33196       -0.98077
Cl         9.72411        1.15741       -0.45570
C          7.68718        2.23186       -1.91626
H          8.29844        2.94679       -2.44757
S          5.99557        2.11814       -2.19733
C         -2.04355       -1.35532       -0.45367
C         -2.10596        0.06213       -0.01533
O         -1.11567        0.72635        0.21010
C         -3.49152        0.61071        0.07220
C         -3.82836        1.82070        0.62994
C         -2.99491        2.74163        1.45795
O         -2.20028        2.38910        2.28809
O         -3.31402        4.01685        1.19530
C         -2.63027        4.98849        1.99232
S         -5.49767        2.17186        0.40879
C         -5.78192        0.66482       -0.37083
C         -7.18576        0.27819       -0.70103
O         -7.66738       -0.80468       -0.50043
O         -7.85263        1.33562       -1.18515
C         -9.23573        1.10211       -1.46635
C         -4.62189       -0.05983       -0.50379
C         -4.49097       -1.37070       -1.20553
O         -5.36741       -1.85708       -1.88915
C         -3.17372       -2.02444       -1.01902
C         -2.89382       -3.30661       -1.39729
H         -3.57773       -4.00940       -1.85379
S         -1.26994       -3.72376       -1.05289
H          4.76530       -0.65086        1.04326
H          3.74888        0.53070       -1.60956
H         -3.01796        5.95359        1.66971
H         -1.55368        4.92609        1.81985
H         -2.83402        4.82319        3.05274
H         -9.62128        2.04931       -1.84063
H         -9.76311        0.80109       -0.55817
H         -9.33983        0.31829       -2.21964
