66
COMP81_300003.log	Energy: -1740558.9991100
C          0.76290       -0.03494       -0.06394
C          2.23026       -0.14820       -0.09031
C          3.14346        0.74990       -0.57821
C          2.70822        1.94840       -1.22107
N          2.32900        2.91152       -1.74554
C          4.52788        0.31831       -0.43493
C          5.72196        0.95987       -0.79770
C          5.82846        2.31786       -1.44036
C          6.89098        0.25248       -0.52123
S          8.49212        0.86561       -0.89391
C          9.22317       -0.55369       -0.25249
H         10.29941       -0.66366       -0.25418
C          8.32872       -1.46100        0.22509
C          8.79535       -2.68791        0.78848
N          9.21327       -3.67224        1.23805
C          6.94437       -1.02767        0.08600
C          5.75146       -1.66717        0.45197
C          5.65372       -3.01931        1.10746
C          4.58361       -0.96132        0.17328
S          2.98886       -1.56711        0.56167
C         -0.03568       -1.12381       -0.43120
C         -1.41998       -1.03771       -0.40050
C         -2.03356        0.14694        0.01318
C         -3.42969        0.59625        0.06276
C         -3.37130        2.05334        0.45769
O         -4.28534        2.80188        0.69601
N         -2.00518        2.36968        0.62984
C         -1.47854        3.59699        1.06533
O         -0.35707        3.71519        1.49808
O         -2.34909        4.58395        0.91918
C         -1.88808        5.85976        1.37090
C         -1.21066        1.23774        0.35126
C          0.17083        1.16749        0.33599
C         -4.61135       -0.06582       -0.10667
C         -4.70916       -1.57243       -0.01247
O         -3.82831       -2.36014        0.22452
N         -6.07711       -1.89862       -0.14325
C         -6.64405       -3.17817       -0.05293
O         -7.83462       -3.37013        0.02754
O         -5.72280       -4.13099       -0.08398
C         -6.23064       -5.46049        0.04350
C         -6.83508       -0.71748       -0.33729
C         -8.19591       -0.61161       -0.57825
C         -8.71256        0.65878       -0.82325
H         -9.77712        0.76611       -1.00748
C         -7.88822        1.78013       -0.84403
C         -6.52680        1.66139       -0.59372
C         -5.98315        0.40418       -0.31330
H          4.87070        2.82145       -1.54877
H          6.27402        2.23330       -2.43892
H          6.47906        2.96817       -0.84351
H          6.61794       -3.50742        1.23450
H          5.02052       -3.68603        0.51002
H          5.19332       -2.92966        2.09876
H          0.42952       -2.04610       -0.76465
H         -2.01417       -1.89120       -0.68552
H         -2.71363        6.54356        1.18056
H         -0.99796        6.16165        0.81483
H         -1.65508        5.82447        2.43739
H          0.76549        2.01651        0.63998
H         -5.35246       -6.10327        0.00680
H         -6.91390       -5.69126       -0.77673
H         -6.75435       -5.57972        0.99452
H         -8.82873       -1.48655       -0.57197
H         -8.30828        2.75918       -1.04948
H         -5.89778        2.53743       -0.59881
