27
COMP42_010001.log	Energy: -1340094.6651008
C         -1.81026       -0.50800        0.00020
C         -0.44798       -0.01525        0.00015
C         -0.04797        1.29729        0.00006
H         -0.72946        2.13999        0.00054
C          1.35699        1.40171        0.00022
F          1.97774        2.58603       -0.00006
C          2.04812        0.21659        0.00008
S          0.91397       -1.10169       -0.00037
C          3.48100        0.01828       -0.00018
S          4.62329        1.33437       -0.00127
C          5.96287        0.25222       -0.00041
H          6.96942        0.64663       -0.00048
C          5.58133       -1.05506        0.00070
H          6.25159       -1.90450        0.00147
C          4.16931       -1.16680        0.00075
F          3.55100       -2.35387        0.00173
C         -2.99792        0.18118       -0.00003
C         -3.45804        1.59278        0.00064
O         -2.83974        2.63397        0.00071
N         -4.85508        1.50180        0.00214
H         -5.44708        2.32017        0.00068
C         -5.36592        0.19690       -0.00019
O         -6.53328       -0.10428       -0.00122
C         -4.14713       -0.65488       -0.00072
C         -3.87284       -1.98127       -0.00095
H         -4.55377       -2.82091       -0.00107
S         -2.16157       -2.22487       -0.00018
