32
COMP53_000400.log	Energy: -1001970.1485591
C         -0.99660       -0.10606       -0.16465
C         -2.43105        0.22087       -0.04607
C         -3.23960       -0.64568        0.70392
C         -4.61172       -0.44793        0.83786
C         -5.46617       -1.39026        1.64751
C         -5.17104        0.66260        0.20420
H         -6.23821        0.85108        0.29361
C         -4.38143        1.52851       -0.54183
C         -3.00805        1.32932       -0.69090
C         -2.18797        2.27430       -1.53211
C         -0.47401       -1.27938       -0.65688
O         -1.17322       -2.31275       -1.16474
N          0.87904       -1.40422       -0.63808
C          1.41902       -0.33407       -0.12383
S          0.31217        0.90179        0.37181
C          2.85412       -0.16407        0.03611
S          3.96151       -1.40346       -0.45687
C          5.25564       -0.39346        0.07515
H          6.28781       -0.70340       -0.00514
C          4.75178        0.77803        0.57324
O          5.43633        1.82167        1.08459
N          3.39693        0.90475        0.54951
H         -2.76800       -1.48538        1.21076
H         -4.86737       -2.18781        2.09655
H         -6.23623       -1.85876        1.02437
H         -5.97973       -0.86033        2.45721
H         -4.84485        2.38058       -1.03282
H         -2.83423        2.89901       -2.15509
H         -1.50100        1.72935       -2.18749
H         -1.57905        2.94293       -0.91297
H         -2.11171       -2.07678       -1.14834
H          6.37962        1.62478        1.05118
