48
COMP61_100030.log	Energy: -1507990.2640012
C         -2.69936        0.59200        0.25118
C         -1.26588        0.36102        0.21582
C         -0.28375        1.24038       -0.11239
F         -0.54433        2.47804       -0.53048
C          1.04900        0.70400       -0.08649
C          2.27921        1.33528       -0.32939
C          2.45687        2.81143       -0.45945
O          3.26663        3.32674       -1.19652
O          1.68571        3.48654        0.39296
C          1.79066        4.90993        0.32049
C          3.41615        0.53299       -0.38841
S          5.03219        1.07125       -0.78909
C          5.64958       -0.53597       -0.55209
H          6.69273       -0.75796       -0.72750
C          4.69664       -1.42187       -0.20281
F          4.93249       -2.72172       -0.05269
C          3.37689       -0.85115       -0.07286
C          2.16515       -1.45757        0.28007
C          2.11882       -2.84775        0.83339
O          2.90696       -3.29457        1.62746
O          1.04869       -3.51032        0.37657
C          0.84155       -4.81216        0.93105
C          1.00388       -0.68320        0.20600
S         -0.62635       -1.24335        0.49188
C         -3.70969       -0.23173       -0.16649
C         -3.98213       -1.49791       -0.83946
O         -3.27561       -2.41073       -1.21959
N         -5.40318       -1.48755       -0.97608
C         -6.13074       -2.57635       -1.58787
C         -5.94893       -0.34081       -0.44477
H         -7.01795       -0.17480       -0.48304
C         -4.95646        0.43597        0.06078
C         -4.68500        1.72233        0.68706
O         -5.40070        2.61182        1.09804
N         -3.26055        1.75255        0.77092
C         -2.58899        2.82224        1.48031
H          1.09148        5.29001        1.06396
H          1.51969        5.26087       -0.67786
H          2.81014        5.22784        0.54967
H         -0.07691       -5.17739        0.47455
H          0.73755       -4.74960        2.01656
H          1.68301       -5.46353        0.68521
H         -5.39280       -3.31877       -1.89622
H         -6.68344       -2.23276       -2.46769
H         -6.82572       -3.03365       -0.87673
H         -3.31918        3.26568        2.15918
H         -2.22586        3.59069        0.79496
H         -1.74784        2.42250        2.05163
