60
COMP81_200020.log	Energy: -2059390.8125543
C          0.24391       -0.03067        0.04142
C         -1.22924       -0.02325        0.01257
C         -2.09227       -0.98398       -0.41647
Cl        -1.55429       -2.47156       -1.13451
C         -3.49046       -0.62623       -0.30225
C         -4.65853       -1.33128       -0.62265
O         -4.65810       -2.59373       -1.13910
C         -4.63007       -3.62252       -0.15428
C         -5.87747       -0.69316       -0.42102
S         -7.42635       -1.41580       -0.78459
C         -8.24407        0.00612       -0.21347
H         -9.32415        0.05620       -0.22290
C         -7.40244        0.97308        0.21346
Cl        -7.98869        2.47852        0.84705
C         -6.00300        0.61647        0.10325
C         -4.83611        1.32028        0.42514
O         -4.84582        2.57918        0.94944
C         -4.84700        3.61538       -0.02899
C         -3.61794        0.68301        0.22149
S         -2.07292        1.39796        0.59461
C          0.96328        1.06437       -0.44456
C          2.35576        1.09684       -0.40859
C          3.06130        0.02098        0.12785
C          4.48798       -0.33137        0.27542
C          4.47805       -1.72759        0.87935
O          5.40704       -2.43815        1.21507
N          3.16001       -2.07846        1.05416
C          2.73744       -3.33442        1.62197
C          2.31263       -1.07859        0.59782
C          0.93288       -1.12499        0.58000
C          5.63384        0.35395        0.00116
C          5.65175        1.83917       -0.33526
O          4.73048        2.63168       -0.40602
N          6.96739        2.19350       -0.50767
C          7.39650        3.53468       -0.81507
C          7.80608        1.09587       -0.35161
C          9.18079        1.08199       -0.50761
C          9.83785       -0.13737       -0.34255
H         10.91673       -0.18162       -0.45806
C          9.12293       -1.29134       -0.04079
C          7.73731       -1.25945        0.11820
C          7.05333       -0.05159       -0.02399
H         -4.67720       -4.56613       -0.69897
H         -5.49085       -3.54234        0.52049
H         -3.70261       -3.58376        0.42766
H         -4.82973        4.55510        0.52397
H         -5.75147        3.57157       -0.64563
H         -3.96049        3.54869       -0.67112
H          0.43013        1.90592       -0.87545
H          2.88430        1.95857       -0.78407
H          3.63572       -3.90567        1.85811
H          2.12424       -3.89400        0.90758
H          2.16087       -3.16873        2.53820
H          0.39612       -1.97946        0.97506
H          6.50734        4.16530       -0.84471
H          7.89972        3.56766       -1.78751
H          8.08113        3.90493       -0.04470
H          9.72611        1.98656       -0.75602
H          9.64484       -2.23517        0.07891
H          7.19746       -2.15978        0.36555
