70
COMP81_200033.log	Energy: -2438172.5122391
C          0.01166       -0.03974        0.05910
C         -1.45884        0.04888        0.03888
C         -2.36292       -0.85397       -0.42343
Cl        -1.88597       -2.30117       -1.24843
C         -3.74134       -0.42526       -0.30775
C         -4.92856       -1.08816       -0.64111
C         -4.98429       -2.55609       -0.94813
O         -4.60091       -3.41670       -0.19802
O         -5.58554       -2.78665       -2.12216
C         -5.76111       -4.16674       -2.45407
C         -6.12270       -0.37652       -0.53853
S         -7.70288       -0.98210       -0.99117
C         -8.44358        0.50162       -0.49387
H         -9.50656        0.64944       -0.62518
C         -7.56456        1.40887       -0.01725
Cl        -8.06285        3.01555        0.39519
C         -6.19556        0.93207        0.00513
C         -5.01802        1.55036        0.44503
C         -5.01797        2.80257        1.27005
O         -5.63340        2.93686        2.29657
O         -4.18676        3.72109        0.76037
C         -4.04660        4.91477        1.53584
C         -3.81223        0.88857        0.22140
S         -2.22620        1.50936        0.61394
C          0.78931        1.00430       -0.45121
C          2.17540        0.94431       -0.42222
C          2.81158       -0.16731        0.13468
C          4.21524       -0.58590        0.22204
C          4.18602       -1.96827        0.82928
O          5.11801       -2.65063        1.17361
N          2.82708       -2.28772        1.04693
C          2.32755       -3.45618        1.64278
O          1.19291       -3.55947        2.04395
O          3.23970       -4.41675        1.68509
C          2.80851       -5.62216        2.32045
C          2.00851       -1.21696        0.62189
C          0.62586       -1.17077        0.60693
C          5.38437        0.04824       -0.08624
C          5.46966        1.54942       -0.23599
O          4.59398        2.36229       -0.07736
N          6.82436        1.85607       -0.49827
C          7.37611        3.13319       -0.66965
O          8.56491        3.33533       -0.75521
O          6.44254        4.07245       -0.73942
C          6.94099        5.40141       -0.90101
C          7.58520        0.66116       -0.54173
C          8.93177        0.52206       -0.84110
C          9.45227       -0.76856       -0.89972
H         10.50605       -0.90021       -1.12556
C          8.64453       -1.88073       -0.68188
C          7.29808       -1.72771       -0.37567
C          6.75157       -0.44420       -0.28094
H         -6.28633       -4.17171       -3.40798
H         -6.34895       -4.67281       -1.68497
H         -4.78948       -4.65733       -2.54564
H         -3.36653        5.54946        0.96980
H         -3.63086        4.68382        2.51931
H         -5.01705        5.40016        1.65948
H          0.30561        1.87017       -0.89215
H          2.75349        1.76346       -0.81866
H          3.66442       -6.29305        2.26650
H          1.94939       -6.04614        1.79624
H          2.53730       -5.42852        3.36060
H          0.04066       -1.97928        1.01980
H          6.05659        6.03678       -0.89945
H          7.48112        5.49513       -1.84586
H          7.60701        5.66526       -0.07672
H          9.54974        1.38865       -1.02213
H          9.06608       -2.87859       -0.74511
H          6.68456       -2.59584       -0.19341
