60
COMP85_000020.log	Energy: -994331.4625650
C          0.91590        0.51407       -0.23506
C          2.39616        0.60366       -0.26374
C          3.16553       -0.38593        0.34879
C          4.54805       -0.26434        0.28677
N          5.52151       -1.08591        0.81969
O          5.27226       -2.33122        1.32733
C          5.19246       -3.29450        0.27226
C          6.77989       -0.63086        0.47470
C          8.02772       -1.18356        0.74890
C          9.13959       -0.48952        0.29129
H         10.12999       -0.89127        0.48322
C          9.01115        0.71999       -0.40860
C          7.75964        1.25890       -0.67436
C          6.62237        0.57648       -0.23974
C          5.19531        0.80944       -0.36032
C          4.41146        1.79779       -0.95564
C          3.03042        1.68714       -0.90707
C          0.26875       -0.71867       -0.36325
C         -1.11892       -0.83108       -0.34009
C         -1.90737        0.31084       -0.19437
C         -3.35193        0.58402       -0.06352
C         -3.43897        2.09012        0.13990
O         -4.41694        2.80613        0.25160
N         -2.15203        2.57193        0.12666
C         -1.82285        3.96784        0.26713
C         -1.23593        1.54349       -0.05502
C          0.13916        1.67020       -0.07392
C         -4.44894       -0.22526       -0.10777
C         -4.38651       -1.68062       -0.54612
O         -3.43865       -2.33731       -0.93749
N         -5.66641       -2.17513       -0.47800
C         -6.01793       -3.52736       -0.83039
C         -6.55385       -1.20568       -0.02662
C         -7.90885       -1.37378        0.19736
C         -8.62537       -0.27943        0.68178
H         -9.69103       -0.37936        0.86525
C         -7.98447        0.92855        0.93292
C         -6.61760        1.08250        0.69826
C         -5.87560        0.01068        0.20002
H          2.70635       -1.20907        0.88587
H          4.98603       -4.24455        0.76686
H          6.14147       -3.35105       -0.27144
H          4.38051       -3.04419       -0.41878
H          8.11746       -2.11217        1.30226
H          9.90318        1.23819       -0.74593
H          7.66497        2.19505       -1.21709
H          4.87548        2.63712       -1.46545
H          2.41891        2.43533       -1.40205
H          0.86045       -1.61584       -0.51602
H         -1.58441       -1.79632       -0.46002
H         -2.75988        4.51706        0.36299
H         -1.27854        4.32541       -0.61343
H         -1.20961        4.13328        1.15950
H          0.61074        2.63714        0.06846
H         -5.10740       -4.02775       -1.16114
H         -6.75408       -3.53509       -1.64121
H         -6.43282       -4.05629        0.03457
H         -8.39481       -2.32532        0.00841
H         -8.55102        1.77206        1.31405
H         -6.13769        2.02997        0.88433
