30
COMP37_000000.log	Energy: -1135691.5765757
C          2.78521       -0.11219       -0.05820
C          1.34184       -0.37090       -0.10794
C          0.71426       -1.55672       -0.41179
H          1.24938       -2.45532       -0.68518
C         -0.69481       -1.48808       -0.32699
H         -1.34360       -2.33437       -0.52002
C         -1.15777       -0.24832        0.04462
S          0.16297        0.84728        0.28097
C         -2.52102        0.22470        0.22814
C         -3.61867       -0.45659       -0.14341
C         -4.98492       -0.01181        0.08353
C         -5.46290        0.99202        0.89029
H         -4.82450        1.60011        1.52089
C         -6.87608        1.13370        0.83293
H         -7.43307        1.86837        1.40233
C         -7.46299        0.23382       -0.00888
H         -8.51429        0.11540       -0.23158
S         -6.29789       -0.79648       -0.74479
C          3.33061        1.16319       -0.25067
F          2.52789        2.20745       -0.48056
C          4.69791        1.39579       -0.20664
F          5.14337        2.63779       -0.40138
C          5.59135        0.36544        0.02702
H          6.65842        0.54601        0.05949
C          5.07480       -0.90352        0.22270
F          5.89443       -1.92915        0.45988
C          3.70753       -1.13926        0.18656
F          3.29176       -2.39088        0.40325
H         -2.63595        1.20123        0.69406
H         -3.50081       -1.40870       -0.65718
