38
COMP41_100000.log	Energy: -1461913.3123348
C         -2.17335       -0.85620       -0.00542
C         -0.76251       -0.51807       -0.00771
C          0.28081       -1.39200       -0.00563
F          0.08055       -2.71801       -0.00344
C          1.59794       -0.82060       -0.00416
C          2.85562       -1.44344       -0.00091
C          3.07823       -2.93236        0.00098
C          3.94427       -0.57732        0.00189
S          5.61682       -1.10886        0.00721
C          6.17513        0.53751        0.00786
H          7.23010        0.77061        0.01075
C          5.15855        1.42006        0.00453
F          5.36079        2.74349        0.00416
C          3.83435        0.83785        0.00107
C          2.57680        1.45620       -0.00260
C          2.35487        2.94542       -0.00520
C          1.48457        0.59115       -0.00519
S         -0.17820        1.13998       -0.00942
C         -3.28788       -0.05522       -0.00392
C         -3.61136        1.39462       -0.00331
O         -2.88343        2.36167       -0.00758
N         -5.01256        1.45646        0.00370
C         -5.75617        2.69733        0.00917
C         -5.63455        0.20251        0.00721
O         -6.82928        0.02295        0.01288
C         -4.51366       -0.76951        0.00154
C         -4.37147       -2.11584        0.00289
H         -5.13476       -2.88158        0.00716
S         -2.69801       -2.53555       -0.00205
H          2.14542       -3.49129       -0.01358
H          3.64156       -3.23336        0.89257
H          3.66833       -3.23132       -0.87383
H          3.29012        3.49977        0.02147
H          1.75382        3.24445        0.86199
H          1.80261        3.24870       -0.90286
H         -5.03496        3.51324       -0.04662
H         -6.34395        2.78356        0.92668
H         -6.43169        2.73412       -0.84884
