36
COMP62_220002.log	Energy: -2297606.0713201
C         -2.23872       -0.61362       -0.06817
C         -0.81551       -0.60550        0.21221
C         -0.05619       -1.47788        0.95476
Cl        -0.67588       -2.82228        1.82386
C          1.31587       -1.09205        1.01541
Cl         2.50303       -1.96784        1.89948
C          1.58257        0.06269        0.32650
S          0.14824        0.69453       -0.39876
C          2.86442        0.74429        0.17502
S          3.15510        2.28342        0.92093
C          4.75287        2.35552        0.29814
H          5.39628        3.19879        0.50445
C          5.05500        1.25268       -0.44045
Cl         6.57846        1.00332       -1.21102
C          3.96936        0.32477       -0.51647
Cl         4.03992       -1.14582       -1.40790
C         -3.14279        0.41100       -0.03891
C         -3.28086        1.80545        0.36929
O         -2.50723        2.65930        0.74371
N         -4.68091        2.01274        0.17129
O         -5.31844        3.16208        0.53039
C         -5.11622        4.18025       -0.45451
C         -5.34906        0.88981       -0.25242
H         -6.42140        0.91673       -0.38670
C         -4.43572       -0.10413       -0.41007
C         -4.31035       -1.52016       -0.73229
O         -5.06680       -2.35840       -1.16315
N         -2.92550       -1.75538       -0.45139
O         -2.31531       -2.92749       -0.77281
C         -2.02948       -2.98789       -2.17391
H         -5.64894        5.05040       -0.06953
H         -5.53933        3.87423       -1.41791
H         -4.05179        4.40574       -0.55578
H         -1.54361       -3.95336       -2.31678
H         -1.34784       -2.17958       -2.46261
H         -2.95495       -2.94249       -2.75412
