37
COMP21_100020.log	Energy: -1471917.7466399
C         -2.77603        0.92420       -0.36534
C         -1.33392        0.68854       -0.24669
C         -0.65001       -0.44471       -0.53510
F         -1.22733       -1.54300       -1.02148
C          0.77020       -0.37974       -0.31738
C          1.75908       -1.35285       -0.50459
O          1.49839       -2.61237       -0.95090
C          0.92623       -3.47813        0.02755
C          3.07263       -0.98546       -0.24008
S          4.45500       -2.04528       -0.39628
C          5.51816       -0.77350        0.14365
H          6.58214       -0.93856        0.23373
C          4.85832        0.37051        0.41286
F          5.45980        1.48716        0.83329
C          3.43357        0.30913        0.20228
C          2.44349        1.28000        0.39375
O          2.70777        2.53576        0.85362
C          3.21592        3.42798       -0.13332
C          1.13057        0.91319        0.12917
S         -0.25548        1.96082        0.31098
C         -3.72342       -0.02301        0.15361
N         -3.43628       -1.15663        0.79347
S         -4.86028       -1.84164        1.17425
N         -5.89132       -0.74450        0.56045
C         -5.13792        0.21875        0.02512
C         -5.61610        1.40530       -0.60112
H         -6.68311        1.57349       -0.69054
C         -4.69234        2.29631       -1.06065
H         -5.01853        3.21412       -1.53941
C         -3.28805        2.05743       -0.94356
H         -2.60262        2.79777       -1.34605
H          0.81247       -4.44758       -0.45854
H         -0.05389       -3.11501        0.35086
H          1.59283       -3.57397        0.89263
H          3.34704        4.38884        0.36552
H          2.50449        3.53595       -0.96081
H          4.18070        3.08222       -0.51713
