52
COMP81_000010.log	Energy: -1338935.7557452
C         -0.98742       -0.14140        0.05050
C         -2.45357       -0.22538        0.07946
C         -3.34032        0.66740       -0.43122
H         -3.03934        1.56106       -0.96670
C         -4.71569        0.29610       -0.23517
C         -5.86609        0.97943       -0.63417
H         -5.79023        1.92426       -1.16364
C         -7.09635        0.41539       -0.33055
S         -8.67432        1.07154       -0.71404
C         -9.45742       -0.28952        0.04398
H        -10.53829       -0.33599        0.05985
C         -8.59289       -1.19092        0.55790
H         -8.90067       -2.09823        1.06462
C         -7.21293       -0.81889        0.36114
C         -6.06172       -1.50377        0.75635
H         -6.13706       -2.44994        1.28347
C         -4.83218       -0.93956        0.45342
S         -3.25647       -1.59129        0.84396
C         -0.18924       -1.28906        0.02777
C          1.20083       -1.21444       -0.02025
C          1.83154        0.02888       -0.05450
C          3.23014        0.49992       -0.03784
C          3.12383        2.01661        0.01929
O          4.00066        2.86027        0.02064
N          1.78333        2.32424        0.01629
C          1.27524        3.67258        0.04827
C          1.00731        1.17353       -0.00701
C         -0.37049        1.11877        0.04525
C          4.42125       -0.16148       -0.08880
C          4.53144       -1.64279       -0.42110
O          3.65765       -2.44810       -0.68559
N          5.87006       -1.95144       -0.43049
C          6.38207       -3.26698       -0.72053
C          6.64134       -0.84193       -0.10473
C          8.01793       -0.80853        0.03047
C          8.60238        0.40259        0.40063
H          9.68072        0.46232        0.51396
C          7.81576        1.52586        0.63211
C          6.42907        1.47666        0.48673
C          5.81623        0.28414        0.10006
H         -0.65868       -2.26801        0.02105
H          1.78692       -2.11923       -0.05405
H          2.13177        4.34730        0.03518
H          0.69023        3.84454        0.95835
H          0.64506        3.86675       -0.82612
H         -0.96183        2.02547        0.11587
H          5.53172       -3.90330       -0.96765
H          6.90579       -3.67971        0.14868
H          7.07120       -3.23211       -1.57085
H          8.61939       -1.69553       -0.13926
H          8.28218        2.46048        0.92626
H          5.83350        2.35955        0.65663
