54
COMP97_340000.log	Energy: -1594852.8843864
C          1.49740       -0.27461        0.23648
C          0.07201       -0.63866        0.33448
C         -0.58067       -1.53413        1.15519
O         -0.01757       -2.44244        1.95687
C         -2.00516       -1.38566        1.12826
C         -2.85143       -2.23129        1.90065
N         -3.55950       -2.91012        2.52000
C         -2.44062       -0.38238        0.28137
S         -1.08918        0.37769       -0.47760
C         -3.76717        0.08027       -0.08125
C         -4.92611       -0.38533        0.42535
C         -6.24937        0.08557        0.06416
C         -6.67182        1.05588       -0.83290
C         -5.84512        1.86405       -1.65938
N         -5.24223        2.56164       -2.36620
C         -8.09910        1.20251       -0.87967
O         -8.75368        2.07604       -1.66976
C         -8.73655        0.34966       -0.02609
H         -9.80122        0.25828        0.12820
S         -7.61653       -0.63031        0.83439
C          1.77115        1.10510        0.47536
C          3.03039        1.63044        0.39837
C          3.23647        3.07626        0.69927
O          2.31704        3.79840        1.02638
N          4.54314        3.55413        0.58320
C          4.80108        4.96483        0.86854
C          5.64859        2.79126        0.20325
O          6.74901        3.29849        0.12053
C          5.41375        1.35121       -0.08971
C          6.46626        0.55733       -0.48784
H          7.45407        0.99518       -0.57909
C          6.23852       -0.79440       -0.78753
C          4.97773       -1.34156       -0.66297
C          4.78610       -2.75984       -1.03885
O          5.68973       -3.45895       -1.44894
N          3.48683       -3.25849       -0.89186
C          3.24909       -4.67010       -1.19857
C          2.41905       -2.56006       -0.35119
O          1.38531       -3.17923       -0.11973
C          2.57458       -1.10828       -0.09146
C          3.88298       -0.55661       -0.22916
C          4.11747        0.80951        0.03171
H          0.66186       -2.89190        1.41096
H         -3.78497        0.87415       -0.82260
H         -4.90885       -1.17603        1.16916
H         -8.12086        2.58709       -2.19351
H          0.96130        1.76694        0.76250
H          3.86183        5.42126        1.17133
H          5.19266        5.45560       -0.02456
H          5.54233        5.04745        1.66536
H          7.04493       -1.43302       -1.13128
H          4.15091       -5.06189       -1.66227
H          2.39822       -4.75628       -1.87538
H          3.02565       -5.21933       -0.28157
