44
COMP51_400230.log	Energy: -2410636.7071567
C         -1.64740       -0.41442        0.41947
C         -0.22133       -0.17921        0.26436
C          0.73274       -1.10484       -0.03542
O          0.55860       -2.42246       -0.22738
C          2.06256       -0.54319       -0.12780
C          3.26117       -1.19349       -0.43743
C          3.30162       -2.60447       -0.94941
O          2.75659       -2.97549       -1.95664
O          4.08099       -3.37600       -0.18040
C          4.24737       -4.71905       -0.64054
C          4.43605       -0.44920       -0.36667
S          6.05425       -1.06010       -0.62912
C          6.71902        0.52878       -0.36976
H          7.79197        0.66905       -0.39253
C          5.78496        1.46844       -0.09103
O          6.00138        2.75969        0.24417
C          4.43370        0.94436       -0.11028
C          3.22135        1.61300        0.10411
C          3.12900        3.10795        0.13923
O          3.60258        3.84309       -0.68824
O          2.38090        3.52133        1.17399
C          2.14774        4.92988        1.23193
C          2.05843        0.84442        0.15104
S          0.44776        1.43303        0.49505
C         -2.31550       -1.29697        1.23533
Cl        -1.53540       -2.36341        2.35289
N         -3.67008       -1.30936        1.16955
C         -4.07999       -0.42012        0.30757
S         -2.83449        0.47362       -0.49479
C         -5.48668       -0.17752        0.02985
S         -6.73420       -1.06988        0.84070
C         -7.89798       -0.17297       -0.05196
H         -8.96023       -0.32906        0.06288
C         -7.25950        0.70957       -0.87242
Cl        -8.07014        1.80050       -1.93844
N         -5.90071        0.71056       -0.83076
H         -0.37230       -2.65366       -0.10776
H          4.90065       -5.19723        0.08794
H          4.70411       -4.72839       -1.63294
H          3.28061       -5.22532       -0.68524
H          6.94469        2.95188        0.18552
H          1.51264        5.08442        2.10308
H          1.64787        5.27264        0.32308
H          3.09436        5.46320        1.34419
