43
COMP59_000330.log	Energy: -1831287.2357809
C         -1.53338        1.02194        0.05463
C         -0.09131        0.91400        0.03186
C          0.63806       -0.25187        0.15715
C          2.01790       -0.01664        0.05885
C          2.33510        1.30813       -0.13708
S          0.95193        2.31015       -0.20138
C          3.77327        1.44206       -0.20746
C          4.34823        0.19983       -0.07008
C          3.27568       -0.85804        0.12333
C          3.43543       -1.55395        1.48245
O          2.67828       -1.46284        2.41068
O          4.56086       -2.27926        1.48357
C          4.83078       -2.98533        2.69815
C          3.19908       -1.95826       -0.94169
O          2.39967       -2.86021       -0.87278
O          4.07699       -1.79280       -1.92549
C          4.02466       -2.77949       -2.96113
C          5.76351        0.23019       -0.12731
C          6.22265        1.50395       -0.31067
H          7.24947        1.83244       -0.39463
S          4.94634        2.67647       -0.41501
C         -2.36541        2.12451        0.16790
C         -1.92039        3.47726        0.29524
N         -1.55105        4.57188        0.39355
N         -3.71268        1.87688        0.16089
C         -3.93784        0.60452        0.04481
S         -2.52295       -0.39807       -0.07785
C         -5.27297        0.02972        0.01263
S         -6.68679        1.03889        0.13922
C         -7.65214       -0.37086        0.01486
H         -8.73199       -0.33383        0.03781
C         -6.85484       -1.47676       -0.11153
C         -7.35837       -2.81250       -0.24104
N         -7.79289       -3.88094       -0.34563
N         -5.50274       -1.24412       -0.11225
H          0.20139       -1.22977        0.32180
H          5.77853       -3.49619        2.53440
H          4.03492       -3.70505        2.90161
H          4.90839       -2.28545        3.53293
H          4.79364       -2.49023       -3.67560
H          3.03989       -2.78168       -3.43316
H          4.22928       -3.77020       -2.54958
H          6.40313       -0.63844       -0.04231
