29
COMP22_140200.log	Energy: -1951554.9225856
C          1.84261       -0.02214        0.06683
C          0.42167       -0.31106        0.28446
C         -0.12486       -1.26853        1.08052
F          0.56698       -2.13024        1.83955
C         -1.54093       -1.32056        1.07563
O         -2.26624       -2.20063        1.80663
C         -2.09497       -0.37331        0.25240
S         -0.84352        0.58311       -0.50175
C         -3.50143       -0.14105        0.00145
S         -4.76191       -1.07932        0.77300
C         -6.00958       -0.20465       -0.03532
H         -7.05341       -0.42907        0.12474
C         -5.47579        0.74284       -0.84121
F         -6.16317        1.60076       -1.61323
C         -4.05464        0.79484       -0.83440
O         -3.32906        1.66879       -1.57124
C          2.36319        1.28054        0.37288
N          1.65866        2.30253        0.85781
S          2.70094        3.53704        1.02992
N          4.07467        2.83841        0.51013
C          3.75102        1.58830        0.17650
C          4.64227        0.60064       -0.31973
H          5.69117        0.82914       -0.46136
C          4.13615       -0.63054       -0.60662
Cl         5.22034       -1.84208       -1.21693
C          2.73626       -0.94571       -0.42681
Cl         2.18426       -2.52307       -0.88137
H         -1.65864       -2.77761        2.28798
H         -3.93645        2.22751       -2.07403
