54
COMP82_400002.log	Energy: -1479761.5390173
C         -1.26984        0.44704       -0.32123
C         -2.73082        0.54840       -0.35195
C         -3.49142        1.63577       -0.71587
O         -3.03263        2.83615       -1.14644
C         -4.89264        1.41072       -0.62498
H         -5.62728        2.17324       -0.85438
C         -5.19666        0.14688       -0.20000
S         -3.76093       -0.78885        0.07794
C         -6.51111       -0.43787        0.01850
S         -7.88894        0.11912       -0.88284
C         -8.93721       -0.98806       -0.06678
H         -9.99352       -1.01701       -0.29703
C         -8.24745       -1.75005        0.83295
O         -8.74408       -2.71782        1.64443
C         -6.85783       -1.43682        0.88550
H         -6.16861       -1.92510        1.56414
C         -0.60765       -0.71456       -0.74233
C          0.77977       -0.81833       -0.72908
C          1.55400        0.25776       -0.28883
C          2.99869        0.54190       -0.18627
C          3.08333        2.01414        0.18920
O          4.02641        2.77039        0.26772
N          1.78734        2.37694        0.51245
O          1.42475        3.69485        0.59956
C          1.59108        4.16284        1.93921
C          0.86491        1.41617        0.11689
C         -0.50774        1.54207        0.12373
C          4.09420       -0.26419       -0.26204
C          3.99418       -1.78126       -0.33234
O          3.05320       -2.51297       -0.55403
N          5.25981       -2.23850       -0.02193
O          5.62484       -3.53222       -0.28578
C          5.32859       -4.36467        0.83579
C          6.20578       -1.21678       -0.05007
C          7.57748       -1.35162        0.01749
C          8.33323       -0.18077       -0.04217
H          9.41618       -0.24425        0.00626
C          7.71510        1.05956       -0.17463
C          6.32640        1.17143       -0.24371
C          5.54098        0.01950       -0.16866
H         -2.08453        2.76633       -1.32569
H         -9.69349       -2.79906        1.49658
H         -1.19080       -1.55076       -1.11542
H          1.25729       -1.72312       -1.07165
H          1.23944        5.19535        1.92025
H          2.64566        4.13014        2.22518
H          0.98602        3.56987        2.63308
H         -0.97093        2.44480        0.50773
H          5.70725       -5.35021        0.56083
H          4.24909       -4.41073        1.00244
H          5.83952       -4.00077        1.73349
H          8.03378       -2.33151        0.09526
H          8.31880        1.95941       -0.23276
H          5.86013        2.13772       -0.35720
