56
COMP87_110002.log	Energy: -1682946.1263360
C         -0.10992        0.54238        0.18710
C         -1.56780        0.67950        0.22015
C         -2.32572        1.78303        0.50074
F         -1.83980        2.98323        0.82097
C         -3.72299        1.56018        0.44445
F         -4.58887        2.54240        0.70281
C         -4.07263        0.27846        0.11798
S         -2.62583       -0.65688       -0.12961
C         -5.37364       -0.33929       -0.04523
C         -6.55019        0.30292        0.08969
C         -7.85259       -0.31438       -0.07428
C         -8.19974       -1.60393       -0.37371
F         -7.33081       -2.59529       -0.58224
C         -9.60181       -1.82313       -0.45068
F        -10.10452       -3.02168       -0.73270
C        -10.33328       -0.70489       -0.21083
H        -11.40839       -0.60685       -0.20977
S         -9.30068        0.63649        0.11363
C          0.49649       -0.71118        0.33951
C          1.87760       -0.87275        0.29482
C          2.70246        0.23686        0.10469
C          4.15549        0.45750       -0.07251
C          4.29188        1.94243       -0.38820
O          5.25954        2.62094       -0.66177
N          3.02488        2.45985       -0.24184
O          2.70022        3.71840       -0.65890
C          2.94716        4.66574        0.38338
C          2.06121        1.48232       -0.04405
C          0.69804        1.67246       -0.01253
C          5.22174       -0.38640        0.02350
C          5.09110       -1.81443        0.54165
O          4.14121       -2.40977        1.00776
N          6.34046       -2.36569        0.40154
O          6.68271       -3.55787        0.97216
C          6.33512       -4.63967        0.10531
C          7.29585       -1.44905       -0.01912
C          8.64558       -1.67945       -0.18882
C          9.41567       -0.61733       -0.66253
H         10.48286       -0.75573       -0.80693
C          8.82696        0.60920       -0.95357
C          7.45975        0.81912       -0.76947
C          6.66230       -0.21690       -0.27876
H         -5.36739       -1.39602       -0.29355
H         -6.55594        1.36024        0.33591
H         -0.11737       -1.58889        0.51810
H          2.30790       -1.85265        0.42785
H          2.60651        5.61985       -0.02095
H          4.01573        4.71230        0.60887
H          2.37424        4.41012        1.28102
H          0.28005        2.65867       -0.16391
H          6.69449       -5.53449        0.61522
H          6.83277       -4.53230       -0.86444
H          5.25084       -4.69177       -0.02412
H          9.07469       -2.64645        0.04692
H          9.43739        1.42478       -1.32742
H          7.02060        1.77884       -0.99077
