39
COMP21_200420.log	Energy: -2018566.4659088
C         -2.73087       -0.30251       -0.39836
C         -1.26469       -0.20420       -0.32821
C         -0.52415        0.92199       -0.18445
Cl        -1.26150        2.48659       -0.08099
C          0.90206        0.68802       -0.11171
C          1.97962        1.57300        0.01963
O          1.82712        2.92558        0.10500
C          1.81468        3.58561       -1.15759
C          3.25816        1.03124        0.08994
S          4.71210        1.98224        0.28235
C          5.68139        0.54197        0.23842
H          6.75758        0.60686        0.31931
C          4.95536       -0.58907        0.10129
Cl         5.70720       -2.15078        0.01373
C          3.52724       -0.35751        0.01870
C          2.45036       -1.24151       -0.11909
O          2.60826       -2.59336       -0.20991
C          2.58811       -3.26216        1.04832
C          1.17146       -0.70012       -0.18879
S         -0.27930       -1.64774       -0.38316
C         -3.53355       -0.18292        0.78397
N         -3.07637        0.00849        2.01608
S         -4.38392        0.07873        2.98945
N         -5.57185       -0.13435        1.88893
C         -4.97036       -0.26720        0.71163
C         -5.61722       -0.48009       -0.54191
H         -6.69934       -0.54580       -0.59203
C         -4.83022       -0.59589       -1.64261
O         -5.28120       -0.80050       -2.91041
C         -3.38381       -0.50805       -1.58249
O         -2.69597       -0.62650       -2.73131
H          1.68145        4.64682       -0.94455
H          0.98406        3.23133       -1.77767
H          2.76189        3.43079       -1.68810
H          2.72528       -4.32211        0.83157
H          1.62876       -3.10944        1.55684
H          3.40358       -2.91289        1.69116
H         -6.24496       -0.84150       -2.92122
H         -3.32684       -0.76881       -3.45252
