32
COMP52_340100.log	Energy: -1740371.2281024
C          1.14340       -0.14483       -0.00253
C         -0.21769        0.34041       -0.00243
C         -0.66640        1.65021       -0.00351
C          0.13039        2.82782       -0.00546
N          0.69040        3.84550       -0.00656
C         -2.09098        1.75494       -0.00245
O         -2.77502        2.91825       -0.00360
C         -2.72635        0.53953       -0.00054
S         -1.55723       -0.75496       -0.00037
C         -4.15303        0.29519        0.00090
S         -5.33276        1.58392        0.00216
C         -6.64001        0.48671        0.00346
H         -7.66167        0.83929        0.00444
C         -6.21501       -0.81604        0.00319
C         -7.04520       -1.97390        0.00410
N         -7.64390       -2.96792        0.00469
C         -4.78677       -0.92359        0.00177
O         -4.09985       -2.08542        0.00107
C          1.57201       -1.45246       -0.00504
F          0.73952       -2.48334       -0.00740
N          2.89072       -1.69794       -0.00423
C          3.53969       -0.56186       -0.00096
S          2.56226        0.86682        0.00030
C          4.98803       -0.47404        0.00107
S          5.97946       -1.89628       -0.00350
C          7.36798       -0.88136        0.00184
H          8.37555       -1.26821        0.00140
C          6.96332        0.42036        0.00660
F          7.78851        1.45341        0.01147
N          5.63402        0.66163        0.00617
H         -2.16429        3.66918       -0.00346
H         -4.70936       -2.83709        0.00297
