34
COMP57_300000.log	Energy: -1570050.1843150
C         -2.23657       -0.30743       -0.16033
C         -0.82094       -0.00390       -0.26588
C         -0.22769        1.18535       -0.58906
H         -0.77348        2.08758       -0.83884
C          1.19540        1.11460       -0.60057
C          2.00968        2.22688       -0.97106
N          2.65989        3.13695       -1.27776
C          1.69013       -0.13668       -0.27617
S          0.37874       -1.22277        0.04340
C          3.05262       -0.62759       -0.17578
C          4.14038        0.13875        0.02571
C          5.49971       -0.35890        0.09652
C          6.60721        0.34846        0.52914
C          6.53373        1.69980        0.98487
N          6.47324        2.79433        1.36287
C          7.81777       -0.40912        0.49804
H          8.77772       -0.01391        0.80455
C          7.61645       -1.67304        0.04005
H          8.35067       -2.45538       -0.09231
S          5.96511       -1.96290       -0.36193
C         -2.84960       -1.53430       -0.14116
H         -2.33378       -2.48461       -0.22121
N         -4.20774       -1.52832       -0.02850
C         -4.65595       -0.30634        0.03703
S         -3.44123        0.93568       -0.02379
C         -6.06295        0.03980        0.15712
S         -7.29290       -1.18436        0.24635
C         -8.46659        0.06867        0.36289
H         -9.52108       -0.15054        0.45145
C         -7.85919        1.28871        0.32683
H         -8.36987        2.24176        0.38338
N         -6.49622        1.26816        0.21008
H          3.16851       -1.70758       -0.25398
H          4.03991        1.21207        0.16667
