34
COMP57_000300.log	Energy: -1570043.7811143
C          1.11376        0.36579        0.15726
C         -0.28131       -0.00266        0.26025
C         -0.77727       -1.23029        0.64392
H         -0.14391       -2.05591        0.95076
C         -2.18487       -1.29835        0.62850
H         -2.74326       -2.17674        0.92855
C         -2.77798       -0.12283        0.22255
S         -1.58300        1.08155       -0.12812
C         -4.18482        0.20658        0.06538
C         -5.17831       -0.69960        0.08270
C         -6.59193       -0.38383       -0.03399
C         -7.23270        0.83043        0.02742
H         -6.71666        1.76677        0.20583
C         -8.63930        0.73088       -0.14335
H         -9.31221        1.57987       -0.12387
C         -9.05898       -0.55544       -0.32662
H        -10.06816       -0.91332       -0.47637
S         -7.74284       -1.66136       -0.29518
C          1.72276        1.60759        0.08311
C          1.03215        2.85970        0.10000
N          0.46498        3.87070        0.11111
N          3.09006        1.61298       -0.00045
C          3.54888        0.39937        0.00726
S          2.34716       -0.85350        0.10238
C          4.96497        0.07758       -0.06351
S          6.16871        1.33125       -0.17286
C          7.37300        0.11313       -0.21028
H          8.42617        0.34445       -0.28248
C          6.79193       -1.12450       -0.13838
C          7.52757       -2.35454       -0.14640
N          8.14559       -3.33397       -0.15438
N          5.42273       -1.13958       -0.05539
H         -4.42179        1.25713       -0.08654
H         -4.92946       -1.75427        0.18336
