51
COMP89_000001.log	Energy: -1315014.0200138
C         -0.62201        0.04115       -0.02601
C         -2.08726        0.05625        0.00446
C         -2.91768        1.12269        0.26147
C         -4.28598        0.76974        0.21061
C         -4.48123       -0.55861       -0.08565
S         -3.00524       -1.40285       -0.31483
C         -5.90225       -0.82697       -0.11516
C         -6.57905        0.33621        0.16588
C         -5.61301        1.48699        0.40429
C         -5.74742        2.04980        1.82823
C         -5.80187        2.59976       -0.63993
C         -7.98849        0.16478        0.15911
C         -8.33904       -1.12567       -0.12626
H         -9.33316       -1.54468       -0.19976
S         -6.96225       -2.15066       -0.39235
C          0.10678       -1.11417        0.28408
C          1.49703       -1.13762        0.25442
C          2.20863        0.01517       -0.08428
C          3.63545        0.38441       -0.16008
C          3.63328        1.86672       -0.51721
O          4.55617        2.63071       -0.71770
N          2.31455        2.22888       -0.63742
H          2.04544        3.16611       -0.89103
C          1.45481        1.17415       -0.36836
C          0.07614        1.21152       -0.36140
C          4.77978       -0.34311       -0.01069
C          4.78996       -1.86498        0.06230
O          3.87355       -2.66185        0.01341
N          6.10844       -2.23425        0.14809
H          6.38416       -3.20251        0.18781
C          6.95992       -1.13842        0.17630
C          8.33623       -1.15402        0.31283
C          8.99466        0.07354        0.36027
H         10.07512        0.09579        0.46684
C          8.27798        1.26371        0.28132
C          6.89095        1.26193        0.13880
C          6.20341        0.04811        0.07074
H         -2.54238        2.11003        0.50777
H         -5.61719        1.25968        2.57336
H         -6.73564        2.50101        1.97031
H         -4.99220        2.82310        2.00788
H         -5.70989        2.19957       -1.65376
H         -5.04708        3.38279       -0.50625
H         -6.79073        3.05977       -0.53582
H         -8.71394        0.94628        0.35435
H         -0.42084       -2.01770        0.57427
H          2.02405       -2.04946        0.48663
H         -0.45509        2.11926       -0.62934
H          8.87911       -2.09099        0.38821
H          8.80125        2.21322        0.32751
H          6.35183        2.19301        0.06482
