34
COMP57_240200.log	Energy: -2702252.5232784
C         -1.81163       -0.08630        0.60377
C         -0.43200        0.37517        0.60938
C          0.01447        1.61445        0.99240
O         -0.72048        2.63232        1.47441
C          1.42504        1.75700        0.83673
Cl         2.23650        3.21982        1.26446
C          2.04838        0.63751        0.34432
S          0.88552       -0.61778        0.04731
C          3.46786        0.47809        0.09560
C          4.05274       -0.67779       -0.26679
C          5.45917       -0.90586       -0.54322
C          6.54457       -0.07129       -0.66225
Cl         6.52863        1.65945       -0.50833
C          7.77615       -0.73757       -0.95809
O          8.96451       -0.12201       -1.12072
C          7.61259       -2.08730       -1.06346
H          8.37674       -2.81934       -1.27754
S          5.97521       -2.54508       -0.80445
C         -2.40722       -1.09760        1.31745
Cl        -1.57913       -2.07385        2.47300
N         -3.72759       -1.32100        1.10119
C         -4.18387       -0.47948        0.21468
S         -3.02166        0.62751       -0.43213
C         -5.57414       -0.45429       -0.21211
S         -6.73418       -1.57741        0.42113
C         -7.92765       -0.83922       -0.57219
H         -8.95477       -1.17236       -0.58703
C         -7.36104        0.17589       -1.28551
Cl        -8.22350        1.17084       -2.40302
N         -6.03470        0.39663       -1.08679
H         -1.63138        2.33679        1.60796
H          4.05367        1.37963        0.23185
H          3.43185       -1.56797       -0.36338
H          8.84650        0.83063       -1.00000
