44
COMP77_230000.log	Energy: -2317465.1414596
C          1.78179        1.30853        0.62025
C          0.50254        0.61625        0.73577
C          0.23246       -0.55013        1.41253
C          1.22372       -1.28995        2.12227
N          2.03715       -1.87348        2.70549
C         -1.14531       -0.91623        1.33602
Cl        -1.75733       -2.33890        2.09584
C         -1.91995       -0.03606        0.62191
S         -0.92936        1.25801        0.01517
C         -3.34488       -0.13128        0.37710
C         -4.07548        0.79824       -0.26338
C         -5.50153        0.75093       -0.54371
C         -6.43837       -0.25288       -0.48707
Cl        -6.12775       -1.88918       -0.03674
C         -7.75328        0.16618       -0.87489
C         -8.89719       -0.68864       -0.90150
N         -9.83367       -1.37042       -0.92739
C         -7.79565        1.48867       -1.22468
H         -8.66093        2.04761       -1.55151
S         -6.26138        2.22437       -1.08550
C          2.99778        0.83751        0.18104
C          3.25748       -0.50411       -0.41861
O          2.36464       -1.30451       -0.64311
C          4.67317       -0.77076       -0.73231
C          5.13511       -1.98026       -1.18664
C          4.37512       -3.24158       -1.45069
S          6.84587       -1.90125       -1.42995
C          6.95685       -0.24940       -0.93049
C          8.26803        0.47149       -0.91719
C          5.71431        0.21612       -0.58429
C          5.44487        1.57974       -0.09979
O          6.29519        2.45039       -0.00289
C          4.03004        1.82577        0.28415
C          3.58274        3.01693        0.77708
H          4.17155        3.90928        0.94027
S          1.91372        2.96036        1.14634
H         -3.80983       -1.03033        0.76427
H         -3.58152        1.70364       -0.61427
H          3.81421       -3.53580       -0.55902
H          5.04389       -4.05729       -1.73746
H          3.64173       -3.08575       -2.24682
H          9.09404       -0.19684       -1.17372
H          8.45095        0.90612        0.06903
H          8.25159        1.30268       -1.62834
