42
COMP71_100021.log	Energy: -1843086.5045969
C         -1.57006        1.46885        0.38979
C         -0.18354        1.05538        0.25312
C          0.37714       -0.07315        0.75073
F         -0.29487       -0.95372        1.48250
C          1.77103       -0.24609        0.45256
C          2.63817       -1.29697        0.77436
O          2.24819       -2.40452        1.46062
C          1.48186       -3.33488        0.69355
C          3.96407       -1.16920        0.37995
S          5.20889       -2.36190        0.67127
C          6.37988       -1.37232       -0.15797
H          7.40540       -1.69533       -0.26559
C          5.85080       -0.21941       -0.61375
F          6.55546        0.70337       -1.27494
C          4.44971       -0.04232       -0.32536
C          3.57750        1.00091       -0.65962
O          3.95777        2.09496       -1.37754
C          4.65639        3.08225       -0.62432
C          2.25278        0.87405       -0.26376
S          0.99887        2.04364       -0.59842
C         -2.72668        0.75418        0.16213
C         -2.81460       -0.62147       -0.39800
O         -1.85060       -1.29415       -0.71610
C         -4.20202       -1.12275       -0.56652
C         -4.51110       -2.36224       -1.04856
H         -3.81547       -3.12541       -1.36899
S         -6.21088       -2.60918       -1.10121
C         -6.52825       -1.04165       -0.47377
H         -7.53671       -0.68697       -0.31091
C         -5.37014       -0.35977       -0.23436
C         -5.29242        1.01907        0.29364
O         -6.27344        1.68572        0.56902
C         -3.90642        1.52607        0.45284
C         -3.62643        2.79290        0.87141
H         -4.34544        3.55665        1.13442
S         -1.93981        3.07711        0.94131
H          1.25113       -4.15937        1.36879
H          2.06821       -3.70384       -0.15594
H          0.55193       -2.88411        0.33506
H          4.85858        3.90130       -1.31533
H          5.60213        2.68738       -0.24084
H          4.04011        3.44345        0.20756
