40
COMP77_440001.log	Energy: -1764381.4830868
C          1.74709        0.89205        0.42035
C          0.49978        0.16546        0.52001
C          0.20112       -1.00669        1.17890
O          1.02050       -1.85241        1.82033
C         -1.19680       -1.29546        1.20715
O         -1.67034       -2.40891        1.80245
C         -1.97522       -0.35682        0.58577
S         -0.97567        0.90731       -0.08164
C         -3.41325       -0.41081        0.44671
C         -4.18670        0.53496       -0.12471
C         -5.62089        0.42208       -0.31213
C         -6.36744       -0.71008       -0.51154
O         -5.94143       -2.00029       -0.59250
C         -7.76365       -0.46020       -0.69259
O         -8.65486       -1.45495       -0.90883
C         -8.06610        0.86484       -0.63201
H         -9.04045        1.31892       -0.73342
S         -6.65379        1.82710       -0.36376
C          3.06570        0.50198        0.20211
C          3.55801       -0.85324       -0.06273
O          2.87385       -1.87765        0.01350
C          4.98041       -0.94976       -0.44760
C          5.60339       -2.11988       -0.78210
H          5.15628       -3.10288       -0.83530
S          7.26434       -1.86569       -1.13161
C          7.14459       -0.17885       -0.82374
H          7.99860        0.47843       -0.91358
C          5.87365        0.17037       -0.47122
C          5.41878        1.53782       -0.14686
O          6.15686        2.50585       -0.14572
C          3.96715        1.63168        0.14834
C          3.34411        2.82554        0.32874
H          3.81038        3.80119        0.31448
S          1.66102        2.62948        0.57563
H          1.82091       -1.96603        1.24778
H         -0.89826       -2.89223        2.13756
H         -3.86885       -1.28920        0.90003
H         -3.72421        1.45279       -0.48797
H         -4.98851       -2.00995       -0.76273
H         -8.15917       -2.28539       -0.94377
