31
COMP22_140300.log	Energy: -1490493.6155567
C          1.94087        0.15005        0.12613
C          0.53103       -0.17956        0.31426
C          0.02047       -1.26642        0.96221
F          0.73916       -2.17830        1.62771
C         -1.38891       -1.37560        0.93080
O         -2.08503       -2.37066        1.52876
C         -1.97721       -0.35196        0.22808
S         -0.76729        0.74785       -0.37787
C         -3.38921       -0.14620       -0.00602
S         -4.61739       -1.22669        0.61741
C         -5.89070       -0.29049       -0.07267
H         -6.92668       -0.57044        0.04660
C         -5.38997        0.77822       -0.73586
F         -6.10531        1.71046       -1.38417
C         -3.97160        0.87713       -0.71026
O         -3.27060        1.86222       -1.31496
C          2.84186       -0.85825       -0.36116
N          2.50208       -2.10617       -0.68360
S          3.86044       -2.83729       -1.18413
N          4.92671       -1.62254       -1.02937
C          4.23521       -0.57871       -0.56808
C          4.75833        0.71602       -0.31142
H          5.80765        0.92802       -0.47602
C          3.89234        1.67309        0.13906
C          4.39803        2.99190        0.40258
N          4.83344        4.04607        0.60423
C          2.48846        1.39513        0.36916
C          1.68434        2.45563        0.90593
N          1.06614        3.32774        1.35295
H         -1.46234       -2.97490        1.95411
H         -3.88915        2.49782       -1.69918
