41
COMP36_000020.log	Energy: -852167.9451943
C         -2.47793       -0.29959       -0.14735
C         -1.02321       -0.59074       -0.19619
C         -0.10025        0.36831        0.24724
C          1.24963        0.08168        0.19127
C          2.44264        0.95471        0.60879
O          2.40591        2.24947        0.05951
C          2.29586        2.31993       -1.34636
O          2.58763        1.10627        1.98608
C          1.53326        1.76347        2.66243
C          3.62069        0.10396        0.14559
C          4.96655        0.40867        0.22271
C          5.88635       -0.53378       -0.24175
H          6.94989       -0.32018       -0.19323
C          5.45097       -1.75175       -0.76411
C          4.09120       -2.05388       -0.83737
C          3.17878       -1.11282       -0.37815
C          1.70423       -1.12885       -0.34648
C          0.79945       -2.08537       -0.78396
C         -0.56348       -1.81248       -0.69626
C         -3.00138        0.88522       -0.66881
F         -2.19170        1.78104       -1.24241
C         -4.36142        1.16143       -0.62038
F         -4.80872        2.30694       -1.13889
C         -5.24930        0.26415       -0.05150
H         -6.31003        0.47937       -0.01389
C         -4.74609       -0.91597        0.46879
F         -5.56926       -1.80281        1.03150
C         -3.38591       -1.19338        0.42319
F         -2.95543       -2.34198        0.95245
H         -0.44812        1.32933        0.61133
H          2.33446        3.38062       -1.60060
H          1.34846        1.89757       -1.70497
H          3.12752        1.80100       -1.84100
H          1.91207        1.98664        3.66139
H          0.65241        1.11499        2.75374
H          1.25624        2.69715        2.16246
H          5.29165        1.35774        0.63731
H          6.18013       -2.47420       -1.11863
H          3.75965       -3.00380       -1.24714
H          1.13948       -3.02787       -1.20274
H         -1.28022       -2.55060       -1.04037
