56
COMP87_320000.log	Energy: -2032163.0107558
C         -0.62686        0.60141        0.17137
C          0.82499        0.82464        0.25488
C          1.52717        1.93516        0.64011
Cl         0.81062        3.40960        1.18919
C          2.94783        1.76804        0.60561
C          3.85373        2.80395        0.97405
N          4.60631        3.63573        1.26985
C          3.32818        0.50463        0.18516
S          1.92704       -0.44372       -0.16821
C          4.63018       -0.11012       -0.00484
C          5.81864        0.46401        0.26485
C          7.12150       -0.14929        0.07180
C          7.50666       -1.37566       -0.44679
C          6.60824       -2.36464       -0.93977
N          5.86414       -3.16133       -1.33632
C          8.92856       -1.55014       -0.44060
Cl         9.69668       -2.97974       -1.02832
C          9.60023       -0.48342        0.06825
H         10.66866       -0.37102        0.18063
S          8.51613        0.75719        0.55176
C         -1.19018       -0.57380        0.67526
C         -2.56178       -0.80995        0.60838
C         -3.40346        0.14067        0.03395
C         -4.84899        0.22442       -0.25976
C         -5.01248        1.53798       -1.00772
O         -6.01688        2.06824       -1.44318
N         -3.76473        2.11388       -1.08436
C         -3.51159        3.39185       -1.70252
C         -2.80577        1.30490       -0.49457
C         -1.44925        1.55717       -0.43935
C         -5.89448       -0.59381        0.05001
C         -5.77719       -1.75547        1.02963
O         -4.81333       -2.14106        1.66511
N         -7.02616       -2.31451        1.13779
C         -7.32876       -3.42818        2.00188
C         -7.93790       -1.66534        0.31270
C         -9.26998       -1.99515        0.13789
C        -10.01159       -1.23477       -0.76663
H        -11.06080       -1.46634       -0.92364
C         -9.41751       -0.19117       -1.46804
C         -8.07401        0.13123       -1.27751
C         -7.31031       -0.59949       -0.36617
H          4.59949       -1.12160       -0.39843
H          5.84886        1.47180        0.66759
H         -0.55488       -1.31071        1.15702
H         -2.97284       -1.71606        1.02400
H         -4.46320        3.77142       -2.07541
H         -2.80967        3.28462       -2.53642
H         -3.09810        4.09695       -0.97371
H         -1.02878        2.45735       -0.87241
H         -6.40984       -3.69868        2.52285
H         -7.68375       -4.28497        1.41923
H         -8.09420       -3.14916        2.73350
H         -9.72000       -2.82020        0.68010
H        -10.00455        0.38954       -2.17203
H         -7.62951        0.95190       -1.81761
