42
COMP72_430000.log	Energy: -1786507.1261759
C          0.64652        0.96652        0.40745
C         -0.59017        0.20114        0.35413
C         -0.94745       -0.96269        1.00854
O         -0.16933       -1.73862        1.75643
C         -2.34106       -1.26630        0.86632
C         -2.91977       -2.41707        1.47919
N         -3.38419       -3.35809        1.97191
C         -3.03222       -0.33653        0.11523
S         -1.97220        0.89782       -0.45166
C         -4.43770       -0.34209       -0.26327
S         -5.25954       -1.81168       -0.63984
C         -6.73051       -0.98547       -0.98056
H         -7.61326       -1.53842       -1.27077
C         -6.60308        0.36339       -0.81641
O         -7.53971        1.31843       -0.98448
C         -5.28477        0.74288       -0.40625
C         -4.93499        2.10024       -0.14444
N         -4.66186        3.20800        0.06195
C          1.98665        0.62317        0.28766
C          2.53510       -0.72027        0.04146
O          1.83309       -1.73464        0.08880
C          3.97895       -0.78805       -0.25940
C          4.66334       -1.93092       -0.60244
C          4.18693       -3.33491       -0.81528
S          6.34387       -1.57032       -0.81782
C          6.15068        0.10626       -0.44262
C          7.31979        1.03985       -0.44627
C          4.83529        0.37273       -0.17151
C          4.32162        1.70806        0.17253
O          5.02661        2.70004        0.27233
C          2.85211        1.77034        0.35570
C          2.18367        2.94089        0.53739
H          2.62147        3.92714        0.60828
S          0.49459        2.68963        0.63358
H          0.69947       -1.80243        1.29199
H         -8.37865        0.91266       -1.23383
H          3.12629       -3.40885       -0.58433
H          4.73927       -4.03175       -0.17617
H          4.34572       -3.64084       -1.85517
H          8.24964        0.51524       -0.68045
H          7.41919        1.52601        0.52784
H          7.16682        1.83630       -1.18016
