32
COMP52_420300.log	Energy: -2192631.1949056
C          1.11971       -0.40337       -0.42630
C         -0.26875        0.00315       -0.51703
C         -0.75341        1.19719       -1.00616
O         -0.05919        2.21635       -1.54319
C         -2.17111        1.29729       -0.88935
Cl        -3.02756        2.69723       -1.41046
C         -2.75069        0.19571       -0.32105
S         -1.56475       -1.00171        0.06788
C         -4.16801       -0.05177       -0.06738
S         -5.28085       -0.32530       -1.36817
C         -6.59964       -0.52673       -0.27531
H         -7.59424       -0.72595       -0.65049
C         -6.20913       -0.39539        1.02532
O         -6.96523       -0.48538        2.13999
C         -4.80846       -0.12515        1.13910
Cl        -4.04659        0.10690        2.66827
C          1.69373       -1.64093       -0.64642
C          0.97243       -2.80050       -1.07666
N          0.38308       -3.73382       -1.42863
N          3.04734       -1.72955       -0.45872
C          3.53326       -0.57940       -0.10539
S          2.36996        0.70288        0.06416
C          4.94762       -0.34466        0.14063
S          6.11522       -1.62697       -0.00540
C          7.33638       -0.50576        0.42500
H          8.37717       -0.78701        0.50054
C          6.78616        0.72932        0.64269
C          7.54322        1.88742        1.01655
N          8.17915        2.80742        1.31694
N          5.42710        0.81539        0.48008
H          0.84361        1.94098       -1.75180
H         -7.88014       -0.66304        1.89201
