47
COMP98_000002.log	Energy: -1227192.3724393
C          0.47597       -0.83874       -0.31227
C          1.73223       -1.59008       -0.37996
C          2.88203       -1.38184        0.32867
O          3.05786       -0.38090        1.22351
C          4.44071       -0.11567        1.44479
C          5.18262       -1.40783        1.74141
O          5.13133       -2.29406        0.62934
C          3.90224       -2.34612        0.05382
C          3.50970       -3.28380       -0.85080
H          4.09270       -4.10669       -1.23705
S          1.89204       -3.00872       -1.37780
C         -0.71355       -1.59841       -0.14227
C         -1.93578       -1.00611        0.01912
C         -3.13526       -1.86806        0.20417
O         -3.10628       -3.07689        0.16715
N         -4.33065       -1.17088        0.41536
O         -5.42379       -1.93571        0.71955
C         -6.14637       -2.28487       -0.46229
C         -4.52636        0.21587        0.44665
O         -5.62696        0.69340        0.60374
C         -3.29462        1.03010        0.25890
C         -3.39190        2.40272        0.29877
H         -4.36152        2.85904        0.46471
C         -2.23930        3.18601        0.13092
C         -1.01472        2.59367       -0.08894
C          0.16666        3.47458       -0.26040
O          0.13417        4.68021       -0.14931
N          1.34488        2.79634       -0.56563
O          2.39705        3.58721       -0.94372
C          3.23756        3.86666        0.17287
C          1.54644        1.41230       -0.73079
O          2.60713        1.01435       -1.14888
C          0.37943        0.55297       -0.36144
C         -0.88108        1.18289       -0.14228
C         -2.04530        0.40339        0.04735
H          4.48925        0.56283        2.29872
H          4.86017        0.37593        0.55871
H          4.74272       -1.89330        2.62229
H          6.24057       -1.21447        1.92929
H         -0.65501       -2.68178       -0.11089
H         -6.98358       -2.88479       -0.10445
H         -5.52092       -2.88224       -1.13213
H         -6.51993       -1.38701       -0.96334
H         -2.29006        4.26868        0.17156
H          4.04567        4.47604       -0.23321
H          3.64452        2.93970        0.59067
H          2.69112        4.43072        0.93475
