30
COMP62_140001.log	Energy: -1219314.5170093
C          2.24566        0.49220       -0.18946
C          0.89821       -0.01081       -0.20296
C          0.48059       -1.29084       -0.43687
F          1.26931       -2.31857       -0.73902
C         -0.92236       -1.47461       -0.39279
O         -1.53190       -2.66337       -0.60263
C         -1.60125       -0.30902       -0.13148
S         -0.48196        1.01620        0.07500
C         -3.03036       -0.13375       -0.00833
S         -4.16158       -1.45903       -0.17853
C         -5.51743       -0.43100        0.09978
H         -6.52663       -0.81498        0.09560
C         -5.11275        0.84436        0.30698
F         -5.90964        1.89637        0.55146
C         -3.70495        1.03346        0.24876
O         -3.09656        2.22865        0.42685
C          3.42680       -0.12342        0.12495
C          3.98859       -1.36092        0.66329
O          3.51110       -2.43000        0.98257
N          5.37015       -1.03876        0.77405
H          6.04109       -1.70201        1.12851
C          5.64311        0.25827        0.39501
H          6.64508        0.66002        0.46063
C          4.48618        0.83977       -0.00981
C          3.91359        2.11320       -0.44752
O          4.39588        3.18879       -0.72576
N          2.52544        1.81809       -0.50116
H          1.86803        2.46204       -0.91593
H         -0.85549       -3.34641       -0.70600
H         -3.77137        2.89712        0.60598
