56
COMP93_000023.log	Energy: -1168940.9885559
C         -0.51046        0.99800       -0.11732
C         -1.51612        2.08823       -0.03629
C         -2.37551        2.15317        1.06167
C         -3.29183        3.19200        1.18413
O         -4.17395        3.32697        2.20873
C         -4.26083        2.27046        3.13927
C         -3.32705        4.18463        0.20398
H         -4.04326        4.99283        0.30779
C         -2.47031        4.13537       -0.88513
C         -1.55832        3.08541       -1.01626
O         -0.69230        2.94087       -2.05673
C         -0.66884        3.94477       -3.04605
C          0.85644        1.38233       -0.11911
C          1.86471        0.45781       -0.07493
C          3.27563        0.91934       -0.07267
O          3.60886        2.08395       -0.11269
N          4.23988       -0.09246       -0.01415
C          5.62649        0.33668       -0.05745
O          6.23737        0.47720       -1.07516
O          6.06114        0.53173        1.17492
C          7.42378        0.96115        1.27053
C          4.01711       -1.46850        0.08944
O          4.95024       -2.23836        0.16916
C          2.59358       -1.89267        0.08607
C          2.29127       -3.23335        0.17685
H          3.09891       -3.95365        0.24657
C          0.94969       -3.64503        0.18466
C         -0.06545       -2.71772        0.08787
C         -1.46711       -3.19746        0.11828
O         -1.78506       -4.35841        0.27002
N         -2.43286       -2.20723       -0.04403
C         -3.81595       -2.64517       -0.05313
O         -4.53776       -2.54355        0.89560
O         -4.11284       -3.14995       -1.23652
C         -5.44494       -3.66053       -1.35422
C         -2.22685       -0.83518       -0.26328
O         -3.17129       -0.14681       -0.57739
C         -0.82257       -0.35576       -0.10540
C          0.21413       -1.33202       -0.01476
C          1.56642       -0.92483       -0.00274
H         -2.31954        1.36821        1.80684
H         -5.06194        2.54063        3.82792
H         -3.32692        2.15401        3.70511
H         -4.50659        1.32119        2.64630
H         -2.52652        4.91749       -1.63307
H          0.10092        3.64585       -3.75800
H         -0.40950        4.92267       -2.62068
H         -1.63294        4.01840       -3.56481
H          1.11024        2.43579       -0.14976
H          7.61243        1.08695        2.33526
H          7.55678        1.90590        0.73941
H          8.08633        0.20384        0.84614
H          0.68815       -4.69401        0.27183
H         -5.51589       -4.05569       -2.36610
H         -6.16960       -2.85838       -1.19919
H         -5.60820       -4.45024       -0.61780
