27
COMP42_210001.log	Energy: -1916867.1377993
C          2.45635        0.46494        0.00155
C          1.04199        0.80365        0.00066
C          0.43275        2.04048       -0.00060
Cl         1.19735        3.58556       -0.00236
C         -0.97883        1.96072       -0.00072
F         -1.74236        3.05262       -0.00232
C         -1.47858        0.69039        0.00055
S         -0.17261       -0.45453        0.00175
C         -2.86975        0.28925        0.00004
S         -4.18575        1.43265       -0.00484
C         -5.36604        0.18039       -0.00326
H         -6.42080        0.41433       -0.00565
C         -4.79429       -1.05351        0.00081
Cl        -5.65009       -2.55032        0.00345
C         -3.37416       -0.98254        0.00278
F         -2.61103       -2.07139        0.00647
C          3.07228       -0.76648       -0.00004
C          2.68706       -2.20453       -0.00454
O          1.59859       -2.73067       -0.00680
N          3.90366       -2.89478       -0.00596
H          3.94803       -3.90393       -0.00881
C          5.04421       -2.08261       -0.00237
O          6.18721       -2.46599       -0.00263
C          4.49001       -0.70430        0.00205
C          4.99122        0.55338        0.00581
H          6.02304        0.87698        0.00794
S          3.70771        1.70211        0.00630
