63
COMP86_000013.log	Energy: -1149029.3838193
C         -1.81838        0.09436        0.16170
C         -3.29693        0.00456        0.23123
C         -3.96698       -1.10979       -0.29406
C         -5.34732       -1.17857       -0.21831
C         -6.27979       -2.25910       -0.71730
H         -6.19187       -2.40372       -1.80112
H         -6.07061       -3.22803       -0.24733
C         -7.64039       -1.72685       -0.32711
C         -8.89329       -2.28942       -0.51887
C        -10.01874       -1.60062       -0.06598
H        -11.00568       -2.03051       -0.20909
C         -9.88820       -0.36498        0.56925
C         -8.63195        0.20321        0.76400
C         -7.50964       -0.48483        0.31352
C         -6.08256       -0.14372        0.37901
C         -5.42994        0.96641        0.90406
C         -4.04390        1.03258        0.82500
C         -1.02127       -1.03942        0.35647
C          0.36190       -0.97558        0.28113
C          0.98989        0.24269        0.00696
C          2.39167        0.66478       -0.03498
C          2.35599        2.15702       -0.26374
O          3.28286        2.90288       -0.45432
N          0.99111        2.52832       -0.32781
C          0.48306        3.81886       -0.52250
O         -0.69411        4.05518       -0.66613
O          1.44070        4.73680       -0.51571
C          0.98911        6.07465       -0.72835
C          0.17707        1.38216       -0.14856
C         -1.20411        1.32763       -0.08968
C          3.56384       -0.03198        0.05044
C          3.62809       -1.52066       -0.18636
O          2.74130       -2.25741       -0.53907
N          4.98271       -1.89913       -0.03916
C          5.51121       -3.18678       -0.19290
O          6.69598       -3.41426       -0.27072
O          4.56070       -4.11210       -0.21838
C          5.02972       -5.44684       -0.41246
C          5.76812       -0.75890        0.26064
C          7.12712       -0.71245        0.53137
C          7.67599        0.51914        0.88020
H          8.73971        0.58059        1.08916
C          6.88338        1.65971        0.96801
C          5.52366        1.60070        0.68713
C          4.94710        0.38469        0.30846
H         -3.40246       -1.90098       -0.78102
H         -9.00128       -3.25118       -1.01335
H        -10.77505        0.15747        0.91549
H         -8.53337        1.16525        1.25918
H         -5.98670        1.77155        1.37514
H         -3.52657        1.88667        1.25183
H         -1.49126       -1.98935        0.59057
H          0.94600       -1.87051        0.42607
H          1.89033        6.68505       -0.69445
H          0.28929        6.37372        0.05503
H          0.50053        6.16457       -1.70118
H         -1.79151        2.21773       -0.25914
H          4.13125       -6.06182       -0.43199
H          5.68533       -5.74622        0.40852
H          5.57291       -5.52869       -1.35649
H          7.73385       -1.60350        0.46931
H          7.32714        2.60884        1.25044
H          4.92239        2.49411        0.74327
