42
COMP67_310002.log	Energy: -1432830.5608316
C          2.80472       -0.58696        0.08394
C          1.38974       -0.85242       -0.02370
C          0.71799       -2.01186       -0.32066
F          1.29346       -3.16688       -0.61274
C         -0.69471       -1.89202       -0.34662
C         -1.53769       -2.99861       -0.64740
N         -2.23031       -3.89620       -0.89187
C         -1.11177       -0.59696       -0.06563
S          0.24287        0.43284        0.20184
C         -2.43451       -0.00776        0.02428
C         -3.59576       -0.67135       -0.13976
C         -4.92149       -0.08898       -0.04267
C         -5.35137        1.17545        0.32895
C         -4.51637        2.25190        0.74041
N         -3.83131        3.12604        1.07473
C         -6.77200        1.29393        0.27083
F         -7.38157        2.42828        0.58967
C         -7.41279        0.16495       -0.12716
H         -8.47560        0.01701       -0.24597
S         -6.27828       -1.08662       -0.44326
C          3.47565        0.59667       -0.08093
C          3.28597        1.95728       -0.56660
O          2.31715        2.61247       -0.89241
N          4.62276        2.45205       -0.53754
O          4.97084        3.69110       -0.98336
C          4.61703        4.69436       -0.02454
C          5.54531        1.52524       -0.11637
H          6.59478        1.78123       -0.08159
C          4.87405        0.38048        0.17784
C          5.06531       -1.00023        0.58847
O          6.00851       -1.63671        0.99410
N          3.74886       -1.55648        0.39994
O          3.38241       -2.68402        1.08838
C          3.90492       -3.85874        0.45675
H         -2.44624        1.05587        0.24350
H         -3.58075       -1.73284       -0.36921
H          4.95921        5.63119       -0.46527
H          5.12960        4.51517        0.92709
H          3.53417        4.71838        0.11927
H          3.40414       -4.68744        0.95863
H          4.98481       -3.91565        0.60499
H          3.66059       -3.86184       -0.60820
