28
COMP32_300000.log	Energy: -1202858.0311534
C         -2.22293        0.18131       -0.03679
C         -0.83529       -0.26406        0.15842
C         -0.40717       -1.42397        0.76611
C         -1.29948       -2.36893        1.36073
N         -2.01934       -3.13128        1.85410
C          1.01101       -1.56459        0.78003
H          1.52108       -2.40023        1.24381
C          1.64796       -0.51401        0.18063
S          0.50915        0.64986       -0.41757
C          3.07960       -0.30653        0.00664
S          4.14456       -1.65991       -0.23779
C          5.51703       -0.64192       -0.33181
H          6.50565       -1.05257       -0.48173
C          5.17432        0.67914       -0.20110
C          6.12658        1.74493       -0.24724
N          6.89336        2.61313       -0.28459
C          3.77206        0.87218       -0.00447
H          3.31711        1.84414        0.14420
C         -2.66907        1.41666        0.43742
F         -1.82497        2.22779        1.07559
C         -3.98701        1.81667        0.26382
F         -4.37119        3.00085        0.73756
C         -4.89464        0.99774       -0.38724
H         -5.92335        1.30976       -0.52026
C         -4.46295       -0.22786       -0.86566
F         -5.30961       -1.03206       -1.50469
C         -3.14456       -0.63243       -0.70022
F         -2.76431       -1.80760       -1.19317
