41
COMP21_000030.log	Energy: -1489641.1162259
C          2.90240        0.88028        0.27847
C          1.45506        0.66531        0.18843
C          0.78149       -0.51001        0.24020
H          1.26140       -1.46987        0.34413
C         -0.64592       -0.34717        0.15371
C         -1.62992       -1.35329        0.16917
C         -1.21725       -2.77716        0.35128
O         -0.15486       -3.15114        0.79287
O         -2.17939       -3.62799       -0.03012
C         -1.89353       -5.01367        0.15873
C         -2.96898       -0.96820        0.04086
S         -4.37676       -2.01167        0.03224
C         -5.42880       -0.63895       -0.09609
H         -6.49874       -0.79703       -0.14048
C         -4.78635        0.54598       -0.15043
H         -5.27619        1.50236       -0.24315
C         -3.35203        0.39773       -0.07251
C         -2.36663        1.40681       -0.08656
C         -2.78425        2.83255       -0.22193
O         -3.91941        3.23049       -0.36273
O         -1.73780        3.66847       -0.17476
C         -2.03919        5.05581       -0.31475
C         -1.02529        1.01774        0.02445
S          0.38797        2.04804        0.01695
C          3.84321       -0.14126       -0.10304
N          3.55132       -1.35272       -0.57645
S          4.96768       -2.10062       -0.85190
N          6.00643       -0.93697       -0.39376
C          5.26242        0.09853       -0.00052
C          5.75890        1.34499        0.47601
H          6.82808        1.50591        0.55047
C          4.84534        2.29400        0.82424
H          5.18102        3.25703        1.19602
C          3.43972        2.06208        0.72771
H          2.77324        2.85824        1.04644
H         -2.78075       -5.54187       -0.18754
H         -1.70546       -5.22313        1.21416
H         -1.01772       -5.30280       -0.42647
H         -1.08141        5.56876       -0.23910
H         -2.71629        5.38033        0.47838
H         -2.50443        5.24682       -1.28440
