26
COMP44_000000.log	Energy: -1191694.9427197
C         -0.57412        0.88568       -0.00140
C          0.83090        0.52962       -0.00198
C          1.35562       -0.73833       -0.00267
H          0.73533       -1.62759       -0.00392
C          2.77340       -0.70686       -0.00143
S          4.02147       -1.91023        0.00020
C          5.24431       -0.67566        0.00218
H          6.28714       -0.96258        0.00321
C          4.74189        0.59036        0.00239
H          5.35365        1.48350        0.00354
C          3.31797        0.56685        0.00009
S          2.07740        1.77203       -0.00002
C         -1.69458        0.09174       -0.00311
C         -2.02826       -1.35214       -0.00094
O         -1.31106       -2.33084       -0.00296
N         -3.42933       -1.40411        0.00374
C         -4.18420       -2.63824        0.00237
C         -4.04264       -0.14510        0.00064
O         -5.23620        0.04186        0.00057
C         -2.91451        0.81884       -0.00181
C         -2.76469        2.16411        0.00041
H         -3.51972        2.93751        0.00200
S         -1.08233        2.56400        0.00066
H         -3.46953       -3.46142       -0.01442
H         -4.82923       -2.68442       -0.87862
H         -4.80552       -2.70228        0.89924
