36
COMP62_040000.log	Energy: -1144141.5905586
C         -1.69688        0.60390       -0.00095
C         -0.33655        0.13355       -0.00069
C         -0.00602       -1.20563       -0.00130
H         -0.75584       -1.99424       -0.00186
C          1.38412       -1.42139       -0.00187
O          1.98433       -2.63918       -0.00189
C          2.13726       -0.26170       -0.00194
S          1.09417        1.12774       -0.00152
C          3.57816       -0.15060       -0.00116
S          4.63315       -1.54341        0.00381
C          6.03472       -0.55206        0.00564
H          7.01654       -1.00487        0.00872
C          5.73639        0.77732        0.00118
H          6.47786        1.56902        0.00041
C          4.33171        1.00339       -0.00253
O          3.73687        2.22491       -0.00738
C         -2.83740       -0.17926       -0.00242
C         -3.29998       -1.55037       -0.00235
O         -2.72965       -2.63689       -0.00240
N         -4.71533       -1.41883       -0.00222
C         -5.59996       -2.56110        0.00468
C         -5.09742       -0.09430       -0.00057
H         -6.14489        0.17637        0.00030
C         -3.98087        0.67878       -0.00117
C         -3.52252        2.05776        0.00095
O         -4.10317        3.12307        0.00315
N         -2.09716        1.93453        0.00034
C         -1.27227        3.12270        0.00496
H          1.30748       -3.32646       -0.00145
H          4.41210        2.91255       -0.00050
H         -4.97084       -3.45224       -0.02976
H         -6.25946       -2.55126       -0.86872
H         -6.20536       -2.58467        0.91654
H         -1.96076        3.96978        0.01033
H         -0.64593        3.17754       -0.89035
H         -0.64259        3.16808        0.89847
