51
COMP98_000003.log	Energy: -1369470.8002915
C          0.33967       -1.13637       -0.30315
C          1.36672       -2.17469       -0.33405
C          2.53393       -2.19340        0.38078
O          2.91959       -1.22078        1.23649
C          4.33664       -1.21979        1.42273
C          4.80570       -2.61911        1.78006
O          4.54007       -3.54284        0.72559
C          3.32600       -3.35985        0.14943
C          2.73838       -4.22568       -0.72190
H          3.13051       -5.16859       -1.07325
S          1.21704       -3.63142       -1.27555
C         -1.02312       -1.53355       -0.23430
C         -2.03199       -0.62142       -0.07577
C         -3.43805       -1.09551       -0.01338
O         -3.76921       -2.25317       -0.15027
N         -4.39691       -0.10520        0.22202
C         -5.77323       -0.55524        0.33520
O         -6.27779       -0.86187        1.37452
O         -6.33059       -0.56048       -0.86219
C         -7.69557       -0.99330       -0.88691
C         -4.17693        1.26710        0.37887
O         -5.10853        2.02373        0.54832
C         -2.75782        1.70231        0.32233
C         -2.45155        3.03144        0.51343
H         -3.25372        3.73658        0.70145
C         -1.11117        3.44952        0.48111
C         -0.10353        2.54502        0.22557
C          1.30123        3.02037        0.23996
O          1.63555        4.13965        0.56530
N          2.24502        2.07297       -0.15720
C          3.62498        2.49695       -0.24273
O          4.47080        2.11750        0.51747
O          3.78051        3.32836       -1.25508
C          5.09713        3.87133       -1.39606
C          1.99207        0.75548       -0.58019
O          2.85046        0.16704       -1.19683
C          0.63685        0.22587       -0.26053
C         -0.39078        1.17392        0.00336
C         -1.73729        0.75422        0.08091
H          4.53699       -0.51549        2.23047
H          4.81735       -0.85916        0.50710
H          4.30388       -2.95678        2.69587
H          5.88607       -2.64004        1.93507
H         -1.27878       -2.58760       -0.28403
H         -7.99824       -0.93324       -1.93082
H         -8.30800       -0.33609       -0.26605
H         -7.76954       -2.01892       -0.51919
H         -0.84674        4.48547        0.66336
H          5.04419        4.53870       -2.25439
H          5.81796        3.07000       -1.57131
H          5.37213        4.42278       -0.49442
