34
COMP64_400002.log	Energy: -1189874.9585078
C          0.69479        0.69290        0.01476
C         -0.64784        0.23415        0.06024
C         -1.10913       -1.04673       -0.30455
O         -0.46207       -2.09029       -0.76870
C         -2.52608       -1.11692       -0.19422
S         -3.67168       -2.37847       -0.48697
C         -4.96263       -1.31767        0.00404
H         -5.98372       -1.67653       -0.00736
C         -4.53451       -0.07326        0.37124
O         -5.26833        0.98109        0.79849
C         -3.11815        0.04007        0.25226
S         -1.98682        1.30648        0.54757
C          1.90764        0.01051       -0.11294
C          2.45877       -1.30514       -0.08537
O          1.96009       -2.44203       -0.04975
N          3.84163       -1.06681       -0.07599
O          4.76908       -2.05659       -0.21032
C          4.97153       -2.72891        1.03684
C          4.16520        0.27410       -0.09533
H          5.19803        0.58816       -0.08138
C          2.99105        0.95552       -0.11669
C          2.44602        2.29897        0.00589
O          2.92062        3.40913        0.01668
N          1.04370        2.03274        0.10048
O          0.14443        3.04677        0.21441
C         -0.10985        3.65506       -1.05949
H          0.50323       -2.20457       -0.47546
H         -6.19999        0.73382        0.83091
H          5.73451       -3.47941        0.82717
H          4.04738       -3.21154        1.36394
H          5.33078       -2.02701        1.79756
H         -0.86503        4.41484       -0.85749
H         -0.50164        2.91479       -1.76462
H          0.80363        4.11712       -1.44087
