42
COMP92_130001.log	Energy: -1527098.9017603
C          0.97003       -0.41848        0.20759
C         -0.49026       -0.54574        0.40349
C         -1.13656       -1.03459        1.49320
F         -0.51510       -1.47267        2.58070
C         -2.55804       -1.00747        1.40310
C         -3.39947       -1.44213        2.46790
N         -4.06954       -1.80564        3.34111
C         -2.98301       -0.48427        0.19610
S         -1.63486       -0.05655       -0.79448
C         -4.34646       -0.31354       -0.28363
S         -5.57355       -1.47952        0.06733
C         -6.76781       -0.60732       -0.80820
H         -7.78770       -0.95569       -0.87581
C         -6.23915        0.52029       -1.34768
F         -6.92103        1.39613       -2.07315
C         -4.85404        0.71038       -1.06355
C         -4.12952        1.84872       -1.52314
N         -3.55603        2.77667       -1.91500
C          1.67212       -1.57898       -0.19243
C          3.02464       -1.54843       -0.41933
C          3.72491       -2.79449       -0.83828
O          3.16631       -3.85944       -0.98997
N          5.09032       -2.65920       -1.05069
H          5.57891       -3.50054       -1.33580
C          5.87293       -1.51641       -0.92837
O          7.06372       -1.54753       -1.15229
C          5.14317       -0.28814       -0.51046
C          5.83348        0.89145       -0.36203
H          6.90075        0.90388       -0.55549
C          5.15528        2.05759        0.03633
C          3.80237        2.02773        0.28352
C          3.12212        3.27830        0.70842
O          3.68567        4.34299        0.84375
N          1.76426        3.14574        0.95400
H          1.28674        3.98246        1.27043
C          0.96935        2.01034        0.87093
O         -0.19879        2.06613        1.18925
C          1.65979        0.77388        0.38479
C          3.06045        0.82556        0.13844
C          3.74738       -0.34231       -0.26658
H          1.13665       -2.51318       -0.32626
H          5.68386        2.99710        0.15683
