36
COMP31_200020.log	Energy: -1855418.4281678
C         -2.98034       -0.27902        0.06517
C         -1.51123       -0.18884        0.03305
C         -0.76136        0.89138       -0.30330
Cl        -1.47734        2.37080       -0.84706
C          0.66515        0.66957       -0.20694
C          1.75306        1.51904       -0.44817
O          1.61565        2.81474       -0.84666
C          1.47827        3.74209        0.22797
C          3.03043        0.99326       -0.29109
S          4.49720        1.90196       -0.56648
C          5.45452        0.52579       -0.11532
H          6.53382        0.59096       -0.11139
C          4.71726       -0.55902        0.20925
Cl         5.45330       -2.04515        0.71797
C          3.28850       -0.34040        0.11157
C          2.20093       -1.18870        0.35273
O          2.33651       -2.48370        0.75581
C          2.46483       -3.41555       -0.31599
C          0.92366       -0.66198        0.19791
S         -0.53688       -1.56746        0.48980
C         -3.67435       -1.13003       -0.79480
F         -3.00668       -1.87274       -1.67674
C         -5.06009       -1.21419       -0.75441
F         -5.68433       -2.03758       -1.59709
C         -5.78966       -0.45260        0.14299
H         -6.87030       -0.51969        0.17336
C         -5.11026        0.39510        1.00194
F         -5.78423        1.13804        1.88030
C         -3.72441        0.47963        0.96978
F         -3.10805        1.29482        1.82171
H          1.38937        4.72639       -0.23251
H          2.35868        3.71600        0.88108
H          0.57780        3.53064        0.81466
H          2.54946       -4.39879        0.14755
H          3.36491       -3.21126       -0.90571
H          1.58262       -3.38683       -0.96664
