50
COMP87_400001.log	Energy: -1384704.9726515
C          0.09048        0.48858        0.20016
C         -1.36678        0.63961        0.25890
C         -2.08041        1.68235        0.79032
H         -1.61577        2.53474        1.27622
C         -3.48628        1.50851        0.68634
O         -4.40757        2.39435        1.14878
C         -3.85759        0.33208        0.07172
S         -2.43480       -0.55995       -0.38790
C         -5.17232       -0.21357       -0.20533
C         -6.35163        0.40266        0.02952
C         -7.64501       -0.22450       -0.19036
C         -7.99910       -1.54303       -0.00630
O         -7.18606       -2.53432        0.43590
C         -9.37091       -1.81413       -0.28500
H         -9.80914       -2.79940       -0.18741
C        -10.04595       -0.69671       -0.66763
H        -11.08914       -0.61591       -0.93989
S         -9.03750        0.69968       -0.68914
C          0.69413       -0.77399        0.22009
C          2.07637       -0.92687        0.18587
C          2.90257        0.19782        0.14191
C          4.35771        0.42664        0.03522
C          4.50399        1.93867       -0.08073
O          5.49807        2.63042       -0.17280
N          3.23226        2.45288       -0.01020
H          3.06063        3.44426       -0.06457
C          2.27106        1.45956        0.09895
C          0.90242        1.63024        0.12633
C          5.42236       -0.42585        0.06003
C          5.29712       -1.89562        0.44554
O          4.32317       -2.53851        0.78452
N          6.56590       -2.41327        0.39636
H          6.75328       -3.37595        0.62736
C          7.50327       -1.46788        0.00288
C          8.85807       -1.66674       -0.19030
C          9.61560       -0.57893       -0.62174
H         10.68255       -0.70261       -0.78082
C          9.01412        0.65412       -0.85426
C          7.64721        0.83898       -0.65186
C          6.86325       -0.22718       -0.20407
H         -3.95447        3.12372        1.58688
H         -5.18067       -1.19503       -0.67856
H         -6.34957        1.41609        0.42049
H         -6.38214       -2.12886        0.79310
H          0.07404       -1.66239        0.29168
H          2.50956       -1.91393        0.22063
H          0.46432        2.62058        0.05320
H          9.31132       -2.63772       -0.01734
H          9.61424        1.49128       -1.19574
H          7.19707        1.80371       -0.82418
