31
COMP21_400110.log	Energy: -1422612.8654004
C          2.18186        0.42170        0.09829
C          0.72025        0.31637        0.07079
C         -0.09159       -0.75678        0.35672
O          0.23371       -1.99274        0.76011
C         -1.50000       -0.46563        0.22040
C         -2.55606       -1.34801        0.44413
H         -2.35891       -2.36624        0.76128
C         -3.84042       -0.86741        0.24244
S         -5.34023       -1.74998        0.44711
C         -6.26594       -0.34245       -0.02724
H         -7.34622       -0.39938       -0.05970
C         -5.49002        0.72679       -0.32097
O         -5.88030        1.96327       -0.71932
C         -4.07644        0.46412       -0.17749
C         -3.01899        1.34331       -0.40273
H         -3.20918        2.36161       -0.72446
C         -1.73437        0.85948       -0.19880
S         -0.24328        1.73735       -0.39808
C          3.07545       -0.69299       -0.12227
N          2.70627       -1.95468       -0.32842
S          4.05943       -2.84376       -0.53802
N          5.16810       -1.67072       -0.37667
C          4.51206       -0.53497       -0.15128
C          5.11808        0.73538        0.04625
H          6.19141        0.86867        0.01879
C          4.26606        1.76423        0.26569
F          4.71686        2.99835        0.46928
C          2.84132        1.61062        0.29761
F          2.17455        2.74237        0.52094
H          1.13317       -2.21334        0.44013
H         -6.84313        1.99549       -0.76393
