31
COMP42_000002.log	Energy: -1287395.9409601
C          0.94587        0.84170       -0.01650
C         -0.36138        0.22137       -0.07728
C         -0.64567       -1.10947       -0.27096
H          0.12920       -1.85579       -0.40440
C         -2.03498       -1.37947       -0.28885
H         -2.45227       -2.36634       -0.45322
C         -2.81278       -0.26275       -0.10844
S         -1.82533        1.14761        0.10609
C         -4.26284       -0.15824       -0.07463
S         -5.24155       -1.51151        0.40619
C         -6.69289       -0.61421        0.17077
H         -7.65233       -1.07900        0.35087
C         -6.43933        0.66078       -0.24071
H         -7.21493        1.38879       -0.44553
C         -5.04836        0.92297       -0.38308
H         -4.64267        1.86859       -0.72532
C          2.19764        0.28295       -0.09449
C          2.79191       -1.06547       -0.24850
O          2.29667       -2.16036       -0.37900
N          4.17652       -0.82213       -0.18760
O          5.07940       -1.80199       -0.45554
C          5.51086       -2.43255        0.75235
C          4.56048        0.52500       -0.06832
O          5.69191        0.93515       -0.02670
C          3.25657        1.22944        0.01265
C          2.84768        2.51002        0.16889
H          3.43888        3.40897        0.27272
S          1.11959        2.57514        0.18218
H          6.23345       -3.18359        0.43152
H          4.66684       -2.91478        1.25489
H          5.99441       -1.70633        1.41268
