34
COMP57_420100.log	Energy: -2249981.8579157
C          2.10807       -0.09973       -0.05517
C          0.76489        0.42979       -0.15696
C          0.33008        1.72591       -0.29397
Cl         1.34131        3.13437       -0.38569
C         -1.08597        1.87054       -0.35584
O         -1.74028        3.04189       -0.48310
C         -1.74442        0.66955       -0.27015
S         -0.61255       -0.63819       -0.10236
C         -3.18025        0.49652       -0.30396
C         -3.83681       -0.68134       -0.30612
C         -5.28381       -0.80684       -0.25093
C         -6.17457       -0.00483        0.42450
O         -5.88485        1.06494        1.19247
C         -7.52779       -0.44221        0.27538
Cl        -8.85199        0.38067        1.02168
C         -7.65046       -1.55932       -0.48970
H         -8.56247       -2.07648       -0.75023
S         -6.12055       -2.11343       -1.04629
C          2.47856       -1.41853        0.07864
F          1.60323       -2.41384        0.13104
N          3.78366       -1.71842        0.16117
C          4.48462       -0.61662        0.09256
S          3.57291        0.84492       -0.07685
C          5.93406       -0.58793        0.15381
S          6.86205       -2.04267        0.32834
C          8.29267       -1.08706        0.30638
H          9.28111       -1.51178        0.39120
C          7.94560        0.22350        0.17114
F          8.81413        1.22006        0.12016
N          6.62923        0.51649        0.08464
H         -1.10075        3.76648       -0.52523
H         -3.73737        1.42926       -0.37109
H         -3.27010       -1.61223       -0.33621
H         -4.93098        1.07322        1.36005
