44
COMP75_000031.log	Energy: -1301450.8440872
C          1.09629       -1.71887        0.28886
C         -0.33402       -1.52939       -0.02124
C         -0.98664       -0.36941        0.40030
C         -2.34087       -0.24034        0.12161
N         -3.24723        0.80658        0.41572
C         -2.99885        2.01743        1.04464
O         -3.83207        2.87465        1.22690
O         -1.72265        2.11937        1.42715
C         -1.37466        3.35667        2.04832
C         -4.51940        0.44514       -0.08611
C         -5.72861        1.13659       -0.04665
C         -6.83291        0.52565       -0.63035
H         -7.78658        1.04442       -0.61262
C         -6.74666       -0.73275       -1.23660
C         -5.53812       -1.41267       -1.26966
C         -4.41946       -0.81839       -0.68934
C         -3.04398       -1.25269       -0.55706
C         -2.38631       -2.40863       -0.96576
C         -1.03465       -2.54471       -0.69436
C          2.19290       -0.90363        0.09955
C          2.20105        0.42531       -0.56829
O          1.20665        0.99677       -0.97858
C          3.55017        1.03290       -0.71007
C          3.78099        2.23930       -1.30615
H          3.04460        2.89561       -1.74916
S          5.45186        2.63972       -1.28654
C          5.86221        1.18493       -0.46915
H          6.88448        0.94880       -0.20746
C          4.75471        0.42452       -0.22625
C          4.75765       -0.89032        0.44963
O          5.77010       -1.42197        0.86927
C          3.41600       -1.51456        0.56041
C          3.22772       -2.75704        1.08712
H          3.99163       -3.40847        1.48903
S          1.57788       -3.21063        1.04122
H         -0.43984        0.40264        0.91591
H         -0.30637        3.28394        2.24794
H         -1.93239        3.48893        2.97798
H         -1.58430        4.19234        1.37764
H         -5.80060        2.10893        0.41850
H         -7.63066       -1.17701       -1.68308
H         -5.46040       -2.38896       -1.73897
H         -2.92309       -3.19036       -1.49433
H         -0.50514       -3.43322       -1.02466
