46
COMP97_240001.log	Energy: -2006584.6039043
C          1.85061       -0.24207        0.15227
C          0.44005       -0.64942        0.22597
C         -0.17767       -1.64513        0.95544
O          0.42559       -2.61076        1.65487
C         -1.60313       -1.52670        0.95679
Cl        -2.55097       -2.67564        1.83173
C         -2.08768       -0.46571        0.23230
S         -0.75853        0.41447       -0.46078
C         -3.42089        0.02134       -0.07843
C         -4.58618       -0.57691        0.23479
C         -5.91909       -0.08405       -0.06609
C         -6.40583        1.10262       -0.56137
Cl        -5.46624        2.50129       -0.99404
C         -7.82953        1.15308       -0.69392
O         -8.52284        2.21420       -1.15396
C         -8.41931       -0.00954       -0.29360
H         -9.47563       -0.23321       -0.29236
S         -7.25419       -1.15368        0.24380
C          2.08887        1.12784        0.47726
C          3.33400        1.68485        0.45486
C          3.49761        3.11350        0.84622
O          2.58102        3.82532        1.19539
N          4.79849        3.59422        0.78226
H          4.92612        4.56421        1.04780
C          5.94799        2.91488        0.39688
O          7.02661        3.46825        0.38652
C          5.74849        1.49164        0.00722
C          6.83062        0.75165       -0.41377
H          7.80886        1.21825       -0.44875
C          6.64319       -0.58018       -0.80767
C          5.39288       -1.16026       -0.75157
C          5.24613       -2.55430       -1.22381
O          6.15049       -3.23938       -1.65091
N          3.95144       -3.04902       -1.14328
H          3.82839       -4.01811       -1.41529
C          2.83081       -2.44745       -0.60691
O          1.81555       -3.12496       -0.49700
C          2.95425       -1.02329       -0.21763
C          4.26065       -0.43600       -0.29360
C          4.45744        0.91694        0.06227
H          1.07862       -3.01125        1.04336
H         -3.43845        0.96014       -0.62173
H         -4.56586       -1.52837        0.75477
H         -7.90383        2.92455       -1.37359
H          1.25929        1.75114        0.79283
H          7.47233       -1.17750       -1.17149
