56
COMP91_300013.log	Energy: -1736309.9073638
C          0.38339       -0.11742       -0.17545
C         -1.07407       -0.38530       -0.15839
C         -1.79819       -0.75128        0.93548
C         -1.23935       -0.84779        2.24361
N         -0.79887       -0.93913        3.31247
C         -3.19047       -1.01153        0.63933
C         -4.20301       -1.38800        1.51783
H         -3.99813       -1.52010        2.57558
C         -5.46875       -1.58083        0.98374
S         -6.91128       -2.04950        1.85986
C         -7.85222       -2.01097        0.41124
H         -8.90738       -2.24731        0.44347
C         -7.13399       -1.66422       -0.68997
C         -7.68287       -1.55740       -2.00259
N         -8.09265       -1.45946       -3.08289
C         -5.73838       -1.40634       -0.39508
C         -4.72364       -1.03164       -1.27416
H         -4.92926       -0.89581       -2.33132
C         -3.45922       -0.83901       -0.73983
S         -2.01737       -0.37358       -1.61716
C          1.23411       -1.24200       -0.28463
C          2.59862       -1.10035       -0.26945
C          3.45619       -2.31063       -0.37755
O          3.01853       -3.43530       -0.47866
N          4.83266       -2.07618       -0.35933
C          5.68898       -3.24261       -0.51029
O          6.06073       -3.64405       -1.57256
O          5.95758       -3.73994        0.68166
C          6.79601       -4.90236        0.67530
C          5.47850       -0.84461       -0.21395
O          6.68762       -0.78228       -0.17887
C          4.58947        0.34245       -0.11339
C          5.14598        1.59349        0.01545
H          6.22604        1.69022        0.03866
C          4.31602        2.72526        0.11533
C          2.94673        2.58954        0.09161
C          2.10420        3.80566        0.19913
O          2.54645        4.93080        0.27558
N          0.72741        3.57776        0.20819
C         -0.12092        4.74970        0.36736
O         -0.44849        5.17723        1.43346
O         -0.43539        5.22057       -0.82488
C         -1.28188        6.37700       -0.81092
C          0.06460        2.35629        0.07650
O         -1.14674        2.32743        0.07294
C          0.93362        1.15053       -0.05448
C          2.34473        1.31204       -0.03727
C          3.18317        0.17961       -0.14222
H          0.80606       -2.23488       -0.37632
H          6.94363       -5.15571        1.72344
H          7.74841       -4.67471        0.19249
H          6.29897       -5.71719        0.14477
H          4.74034        3.71833        0.21613
H         -1.45880        6.61607       -1.85794
H         -0.77842        7.20237       -0.30334
H         -2.21972        6.14772       -0.30101
