40
COMP55_000030.log	Energy: -1180144.4243237
C          1.45718       -0.26389       -0.28727
C          0.04415       -0.66237       -0.22892
C         -0.92782        0.33303       -0.08613
C         -2.26498       -0.04685       -0.06078
N         -3.44249        0.72687        0.07334
C         -3.57002        2.10236        0.19080
O         -4.62462        2.68259        0.30247
O         -2.37965        2.71274        0.16660
C         -2.43182        4.13516        0.29111
C         -4.55324       -0.15123        0.06156
C         -5.91474        0.12406        0.16729
C         -6.78977       -0.95592        0.12561
H         -7.85579       -0.76754        0.20876
C         -6.33354       -2.27103       -0.01723
C         -4.97542       -2.53369       -0.12131
C         -4.08167       -1.46566       -0.08047
C         -2.63644       -1.40006       -0.15639
C         -1.66111       -2.38462       -0.28748
C         -0.32739       -2.01432       -0.32682
C          1.99436        0.86208       -0.85349
H          1.41715        1.61679       -1.37488
N          3.34964        1.00099       -0.76838
C          3.87276       -0.01507       -0.14188
S          2.73770       -1.21346        0.40033
C          5.29832       -0.16703        0.10523
S          6.43893        1.02485       -0.44506
C          7.69811        0.07147        0.24217
H          8.73372        0.37487        0.18464
C          7.17758       -1.04741        0.81993
H          7.75374       -1.81438        1.32261
N          5.81733       -1.17965        0.74069
H         -0.63446        1.36606        0.02481
H         -1.39280        4.46206        0.27632
H         -2.91156        4.41916        1.22991
H         -2.98394        4.57174       -0.54378
H         -6.27317        1.13712        0.27867
H         -7.04780       -3.08780       -0.04559
H         -4.61116       -3.55083       -0.23232
H         -1.94301       -3.43017       -0.36573
H          0.43874       -2.77340       -0.45317
