46
COMP72_300003.log	Energy: -1928688.9952368
C         -0.31893       -2.24701       -0.16809
C         -1.69821       -1.85108        0.11189
C         -2.56366       -2.38982        1.04160
C         -2.19702       -3.44170        1.93733
N         -1.91018       -4.29961        2.66222
C         -3.84368       -1.76330        1.04929
H         -4.63210       -2.02826        1.74325
C         -3.94220       -0.76519        0.11983
S         -2.47405       -0.60260       -0.78609
C         -5.07494        0.10950       -0.15413
S         -6.70607       -0.48340       -0.03921
C         -7.35530        1.04280       -0.46308
H         -8.42333        1.19782       -0.52423
C         -6.36637        1.96287       -0.69928
C         -6.63095        3.31842       -1.07007
N         -6.84182        4.41775       -1.37047
C         -5.05399        1.42649       -0.52018
H         -4.14623        2.00726       -0.63353
C          0.83260       -1.49422       -0.12200
C          0.93593       -0.09169        0.35481
O          0.02877        0.48444        0.91933
C          2.28026        0.52766        0.16309
C          2.56914        1.85560        0.36651
C          1.63177        3.00482        0.53289
O          0.58910        3.13075       -0.05382
O          2.15332        3.91068        1.37024
C          1.37593        5.09915        1.54356
S          4.25952        2.15434        0.25421
C          4.59997        0.50259       -0.08274
C          6.02279        0.05953       -0.18448
O          6.47530       -0.92273        0.33993
O          6.73611        0.95342       -0.88338
C          8.13323        0.66434       -0.98869
C          3.45010       -0.24944       -0.12602
C          3.35780       -1.67163       -0.56511
O          4.30091       -2.30053       -0.99891
C          1.98997       -2.24091       -0.50956
C          1.70146       -3.53562       -0.83497
H          2.40658       -4.29447       -1.14591
S          0.03087       -3.86463       -0.68775
H          1.95857        5.73170        2.21140
H          0.40888        4.85553        1.98852
H          1.21672        5.59334        0.58247
H          8.55537        1.47881       -1.57534
H          8.28248       -0.29335       -1.49179
H          8.59028        0.62396        0.00274
