66
COMP81_300030.log	Energy: -1740550.8912233
C          0.52960        0.06128        0.13600
C         -0.93933        0.07702        0.11962
C         -1.79283       -0.97398       -0.09963
C         -1.31701       -2.25583       -0.51194
N         -0.90795       -3.27265       -0.89136
C         -3.19175       -0.58949       -0.06578
C         -4.33483       -1.38652       -0.20386
C         -4.24680       -2.87823       -0.12119
O         -3.58210       -3.46023        0.69893
O         -5.02954       -3.47592       -1.02475
C         -5.02704       -4.90795       -0.98073
C         -5.57223       -0.74603       -0.26969
S         -7.11905       -1.52552       -0.53297
C         -7.93232       -0.01233       -0.42140
H         -9.00203        0.04052       -0.57544
C         -7.11047        1.04742       -0.19463
C         -7.62193        2.38134       -0.24162
N         -8.08079        3.43990       -0.35261
C         -5.71751        0.64972       -0.07367
C         -4.58165        1.42838        0.19145
C         -4.71820        2.83700        0.67509
O         -5.55372        3.18987        1.46911
O         -3.77725        3.63644        0.16217
C         -3.80722        4.99131        0.62678
C         -3.33567        0.80653        0.12832
S         -1.78300        1.58037        0.34879
C          1.26187        1.12592       -0.39944
C          2.65468        1.12318       -0.39802
C          3.34686        0.04190        0.14520
C          4.76718       -0.34874        0.25731
C          4.73527       -1.73885        0.87413
O          5.65318       -2.47703        1.17732
N          3.41384       -2.04519        1.10269
C          2.96496       -3.29921        1.65936
C          2.58440       -1.02831        0.65919
C          1.20457       -1.03579        0.68749
C          5.92119        0.30524       -0.05554
C          5.96432        1.78698       -0.41049
O          5.05893        2.59892       -0.46367
N          7.28142        2.10730       -0.62590
C          7.73405        3.43318       -0.96548
C          8.09840        0.99190       -0.47719
C          9.46754        0.94372       -0.66873
C         10.10041       -0.28835       -0.50231
H         11.17455       -0.35940       -0.64477
C          9.36788       -1.42116       -0.16436
C          7.98811       -1.35506        0.02970
C          7.32882       -0.13334       -0.11350
H         -5.69789       -5.22291       -1.77828
H         -5.38649       -5.25900       -0.01089
H         -4.01578       -5.28312       -1.15051
H         -2.99152        5.49259        0.10834
H         -3.65753        5.02520        1.70812
H         -4.76708        5.44896        0.37956
H          0.74289        1.96552       -0.85121
H          3.19431        1.96073       -0.81069
H          3.84778       -3.91406        1.83578
H          2.29323       -3.80840        0.96037
H          2.44211       -3.13533        2.60731
H          0.66249       -1.86778        1.12085
H          6.85959        4.08421       -0.98776
H          8.21719        3.43695       -1.94847
H          8.44309        3.80050       -0.21611
H         10.02726        1.83136       -0.94462
H          9.87158       -2.37463       -0.04383
H          7.43351       -2.23860        0.30402
