48
COMP71_400000.log	Energy: -1767944.7782873
C         -0.93774        1.32491       -0.32596
C          0.41258        0.83767       -0.11125
C          1.02832       -0.27822       -0.62442
O          0.41478       -1.23188       -1.33213
C          2.46242       -0.31590       -0.38418
C          3.39731       -1.29397       -0.75909
C          3.07636       -2.54865       -1.52707
C          4.71422       -1.04521       -0.37714
S          6.04636       -2.12456       -0.74323
C          7.16153       -1.06021        0.06751
H          8.21210       -1.31578        0.11902
C          6.56987        0.04219        0.58242
O          7.20008        1.03632        1.26388
C          5.13659        0.09712        0.34827
C          4.20076        1.07188        0.72650
C          4.52001        2.32214        1.50327
C          2.88756        0.82671        0.33360
S          1.55777        1.89629        0.71555
C         -2.19721        0.73486       -0.27768
C         -2.50521       -0.64986        0.09658
O         -1.62885       -1.51172        0.22904
C         -3.93366       -0.96698        0.30960
C         -4.41787       -2.17245        0.75996
C         -3.70512       -3.41887        1.18730
S         -6.14897       -2.12846        0.81968
C         -6.24198       -0.50466        0.23420
C         -7.56256        0.17056        0.03655
C         -4.98153       -0.01789        0.01215
C         -4.69694        1.34379       -0.46917
O         -5.56493        2.15423       -0.75640
C         -3.25576        1.67715       -0.54031
C         -2.80808        2.93598       -0.78826
H         -3.41699        3.80531       -0.99557
S         -1.10059        3.02350       -0.70746
H         -0.44113       -1.41798       -0.87232
H          2.00865       -2.65772       -1.69900
H          3.43793       -3.42910       -0.98176
H          3.58512       -2.53760       -2.49904
H          8.14076        0.82942        1.31658
H          5.58509        2.42590        1.69666
H          3.99341        2.31654        2.46589
H          4.18081        3.20887        0.95351
H         -2.63129       -3.29003        1.06858
H         -4.02735       -4.27565        0.58563
H         -3.92310       -3.64764        2.23621
H         -8.38949       -0.47079        0.35263
H         -7.70034        0.43390       -1.01597
H         -7.59911        1.10607        0.60092
