33
COMP42_100003.log	Energy: -1483037.2045850
C         -0.98520       -1.70583       -0.04116
C          0.44338       -1.48024       -0.02972
C          1.43317       -2.43420       -0.02290
F          1.16478       -3.74267       -0.03123
C          2.75600       -1.95150       -0.02174
H          3.62846       -2.59220       -0.04660
C          2.77847       -0.58061       -0.02273
S          1.18351        0.10007       -0.01203
C          3.94002        0.29387       -0.02622
S          5.45101       -0.23785        0.65020
C          6.22081        1.25481        0.26436
H          7.26044        1.43458        0.49389
C          5.33940        2.10005       -0.33465
F          5.65831        3.32859       -0.74259
C          4.03446        1.57123       -0.51125
H          3.22801        2.10908       -0.99470
C         -2.03734       -0.82175       -0.03870
C         -2.21923        0.64195       -0.03924
O         -1.39602        1.52104       -0.08494
N         -3.63418        0.83229       -0.02530
C         -4.28504        2.09094       -0.07325
O         -5.29274        2.29421       -0.69296
O         -3.62948        2.97332        0.67157
C         -4.15287        4.30231        0.62560
C         -4.36409       -0.39754       -0.04079
O         -5.55803       -0.51146       -0.00901
C         -3.31232       -1.43737       -0.05017
C         -3.27538       -2.79179       -0.05770
H         -4.09445       -3.49746       -0.06843
S         -1.63793       -3.33670       -0.05483
H         -3.47894        4.89823        1.23892
H         -5.16669        4.32531        1.03148
H         -4.16624        4.67187       -0.40226
