44
COMP41_000030.log	Energy: -1573982.6258286
C         -2.35409       -1.13855       -0.02605
C         -0.98996       -0.63421       -0.01881
C          0.13578       -1.39799       -0.01611
H          0.14381       -2.47852       -0.02097
C          1.34450       -0.62483       -0.00951
C          2.67619       -1.09093        0.00032
C          2.93444       -2.56094        0.00609
O          2.09058       -3.42754       -0.06492
O          4.23923       -2.84246        0.10211
C          4.58181       -4.22797        0.10717
C          3.70140       -0.13803        0.00120
S          5.42968       -0.43116        0.01379
C          5.75108        1.27357       -0.01472
H          6.77778        1.61671       -0.01721
C          4.64426        2.04368       -0.02957
H          4.64886        3.12225       -0.05162
C          3.43043        1.26139       -0.01962
C          2.10046        1.72340       -0.02143
C          1.83336        3.19375       -0.04294
O          2.66498        4.06503       -0.16649
O          0.52990        3.45821        0.09298
C          0.14996        4.83344        0.06762
C          1.07217        0.77065       -0.00926
S         -0.64928        1.08333       -0.00650
C         -3.56900       -0.50323       -0.00737
C         -4.09715        0.88606        0.02667
O         -3.51743        1.94843        0.04576
N         -5.49275        0.74500        0.03161
C         -6.40695        1.86522        0.06766
C         -5.92948       -0.58466        0.00536
O         -7.08648       -0.93237        0.00521
C         -4.68150       -1.38607       -0.02059
C         -4.35023       -2.69881       -0.05060
H         -4.99687       -3.56524       -0.06605
S         -2.63226       -2.87118       -0.06385
H          5.66754       -4.25750        0.18682
H          4.24773       -4.70551       -0.81651
H          4.11822       -4.72938        0.95960
H         -0.93336        4.83259        0.17816
H          0.44398        5.29128       -0.87940
H          0.62515        5.37084        0.89138
H         -5.81409        2.77811        0.00229
H         -6.97827        1.86103        0.99976
H         -7.10250        1.80850       -0.77295
