66
COMP91_100033.log	Energy: -2030984.4576995
C         -0.97279       -0.14676        0.13444
C          0.47343       -0.39646        0.12336
C          1.39409        0.28537       -0.59396
F          1.05271        1.29065       -1.39408
C          2.74122       -0.20293       -0.48771
C          3.92781        0.31405       -1.02676
C          4.03971        1.66681       -1.65288
O          4.79289        1.92208       -2.56617
O          3.27468        2.55415       -1.02861
C          3.24109        3.87271       -1.58080
C          5.08410       -0.45060       -0.89309
S          6.64473       -0.07450       -1.58646
C          7.33040       -1.49833       -0.86418
H          8.36341       -1.76363       -1.03929
C          6.43766       -2.21213       -0.15028
F          6.72934       -3.37992        0.41556
C          5.11460       -1.63604       -0.11271
C          3.95529       -2.07756        0.54218
C          4.01170       -3.16198        1.57013
O          4.90143       -3.30307        2.36980
O          2.91000       -3.92685        1.53161
C          2.81868       -4.92303        2.55319
C          2.76779       -1.38640        0.29294
S          1.18327       -1.77970        0.92938
C         -1.82987       -1.25306       -0.09952
C         -3.18568       -1.09800       -0.21288
C         -4.03328       -2.29295       -0.46330
O         -3.60215       -3.42342       -0.52598
N         -5.39715       -2.03896       -0.62744
C         -6.23858       -3.18628       -0.92577
O         -6.46048       -3.56175       -2.03823
O         -6.68602       -3.70190        0.20428
C         -7.54233       -4.84000        0.04894
C         -6.04175       -0.80072       -0.54621
O         -7.24363       -0.72267       -0.67841
C         -5.16205        0.37000       -0.29441
C         -5.71715        1.62769       -0.23238
H         -6.78711        1.74026       -0.36850
C         -4.89336        2.74350       -0.00745
C         -3.53643        2.58631        0.16802
C         -2.70561        3.79487        0.38500
O         -3.13693        4.92784        0.37135
N         -1.35497        3.54552        0.61884
C         -0.51581        4.69280        0.91143
O          0.22057        5.18496        0.10575
O         -0.70303        5.07117        2.16038
C          0.05461        6.21779        2.56464
C         -0.72419        2.29745        0.72565
O          0.39738        2.24883        1.17571
C         -1.53432        1.11911        0.29343
C         -2.93564        1.30160        0.11980
C         -3.76896        0.18739       -0.12814
H          2.44751        4.38940       -1.04330
H          3.02011        3.82915       -2.64953
H          4.20471        4.36590       -1.43222
H          1.85042       -5.39976        2.40824
H          2.88132       -4.46152        3.54108
H          3.62664       -5.64977        2.44374
H         -1.40832       -2.24631       -0.21862
H         -7.81632       -5.13378        1.06068
H         -7.00699       -5.64553       -0.45798
H         -8.42717       -4.56512       -0.52897
H         -5.30912        3.74467        0.02754
H         -0.19095        6.37153        3.61373
H         -0.23533        7.08498        1.96752
H          1.12178        6.02392        2.43989
