30
COMP52_300000.log	Energy: -1521493.8151452
C         -1.22607       -0.01538       -0.26142
C          0.15254        0.42669       -0.15125
C          0.66921        1.69979       -0.00495
C         -0.12576        2.88443        0.06038
N         -0.75006        3.85997        0.11683
C          2.09399        1.73079        0.05786
H          2.65865        2.64615        0.18937
C          2.65737        0.49110       -0.04476
S          1.43597       -0.73410       -0.21094
C          4.06941        0.13478       -0.02989
S          5.26310        1.22286       -0.67647
C          6.53997        0.14943       -0.29284
H          7.56804        0.40345       -0.50962
C          6.07247       -1.00120        0.28767
C          6.92394       -2.07159        0.70524
N          7.60850       -2.94279        1.04512
C          4.65183       -1.00901        0.44095
H          4.10628       -1.82293        0.90334
C         -1.68792       -1.10986       -0.95171
H         -1.06551       -1.76725       -1.54854
N         -3.02544       -1.34416       -0.88224
C         -3.60713       -0.43916       -0.14227
S         -2.55970        0.77165        0.52478
C         -5.03682       -0.40782        0.12272
S         -6.11196       -1.58940       -0.56041
C         -7.41308       -0.80089        0.24200
H         -8.42937       -1.15780        0.15374
C         -6.95242        0.27009        0.94954
H         -7.56622        0.93472        1.54428
N         -5.60438        0.48902        0.87921
