41
COMP41_200003.log	Energy: -2032463.4847732
C          1.74863       -1.34230       -0.61773
C          0.35090       -0.96387       -0.43114
C         -0.64518       -1.64625        0.19534
Cl        -0.33015       -3.16326        0.98095
C         -1.93265       -0.97850        0.18545
C         -3.17102       -1.37784        0.71821
C         -3.39819       -2.68273        1.43878
C         -4.22126       -0.48061        0.53861
S         -5.85319       -0.76394        1.12377
C         -6.38598        0.74781        0.47572
H         -7.41617        1.05749        0.58347
C         -5.40264        1.43482       -0.14219
Cl        -5.73941        2.97495       -0.87776
C         -4.11109        0.76808       -0.13222
C         -2.87466        1.16785       -0.66128
C         -2.65155        2.47696       -1.37520
C         -1.82427        0.26820       -0.48678
S         -0.20512        0.55163       -1.08448
C          2.88226       -0.63151       -0.33613
C          3.21699        0.65123        0.32923
O          2.49596        1.45595        0.85321
N          4.64494        0.71473        0.27006
C          5.43369        1.75561        0.82269
O          6.48792        1.57340        1.36685
O          4.84305        2.92846        0.62696
C          5.51155        4.04357        1.22079
C          5.23674       -0.43574       -0.34083
O          6.40838       -0.61487       -0.52561
C          4.07954       -1.27925       -0.71554
C          3.88966       -2.48863       -1.30432
H          4.62633       -3.19033       -1.67072
S          2.20508       -2.83859       -1.39557
H         -3.08495       -3.53463        0.83085
H         -4.45563       -2.82345        1.67554
H         -2.84109       -2.72296        2.37916
H         -2.96324        3.32317       -0.75872
H         -3.21515        2.52347       -2.31153
H         -1.59551        2.62276       -1.61606
H          4.86890        4.90037        1.02494
H          6.49372        4.18356        0.76366
H          5.63131        3.88822        2.29517
