52
COMP87_430001.log	Energy: -1500428.8031376
C         -0.62637        0.52497       -0.07241
C          0.82078        0.75457       -0.13791
C          1.50680        1.94927       -0.24606
C          0.93047        3.24694       -0.34967
N          0.55941        4.34450       -0.42706
C          2.93017        1.78988       -0.29224
O          3.80151        2.81296       -0.40704
C          3.33010        0.47701       -0.21726
S          1.93402       -0.55619       -0.08175
C          4.66093       -0.09948       -0.21974
C          5.81481        0.58282       -0.37762
C          7.12625       -0.04429       -0.29752
C          7.53310       -1.05350        0.54274
O          6.79424       -1.66667        1.48944
C          8.90797       -1.41630        0.36092
C          9.56684       -2.43633        1.11061
N         10.11341       -3.26168        1.71340
C          9.51975       -0.66475       -0.60752
H         10.54596       -0.74369       -0.93724
S          8.45440        0.48022       -1.29719
C         -1.19020       -0.61645       -0.65349
C         -2.55767       -0.86545       -0.59429
C         -3.40385        0.03574        0.05286
C         -4.86400        0.14105        0.26614
C         -5.05280        1.46743        0.99019
O         -6.06115        2.00644        1.39801
N         -3.79450        1.99068        1.16814
H         -3.65130        2.88499        1.61059
C         -2.81307        1.19148        0.60834
C         -1.45749        1.44943        0.57525
C         -5.89544       -0.69760       -0.03988
C         -5.68445       -2.12417       -0.54332
O         -4.65727       -2.74196       -0.74216
N         -6.93374       -2.66144       -0.70574
H         -7.06453       -3.60950       -1.02131
C         -7.93877       -1.75564       -0.39348
C         -9.30264       -1.95982       -0.49045
C        -10.14021       -0.89766       -0.15350
H        -11.21629       -1.02692       -0.21860
C         -9.60763        0.32082        0.25616
C         -8.22983        0.50975        0.35090
C         -7.36317       -0.53981        0.03386
H          3.32308        3.65464       -0.42814
H          4.70328       -1.18347       -0.11777
H          5.78182        1.65267       -0.56098
H          5.98738       -1.14987        1.63317
H         -0.55568       -1.31763       -1.18662
H         -2.96063       -1.75876       -1.04367
H         -1.05426        2.33814        1.04806
H         -9.70368       -2.91185       -0.82347
H        -10.27083        1.14079        0.51146
H         -7.83208        1.45612        0.68085
