36
COMP77_210001.log	Energy: -2276912.4604052
C         -2.06824        1.09303        0.67310
C         -0.78239        0.41614        0.70987
C         -0.49950       -0.81385        1.22739
F         -1.39377       -1.59636        1.80358
C          0.86715       -1.18461        1.12446
Cl         1.44333       -2.69847        1.71591
C          1.64750       -0.22263        0.53095
S          0.66964        1.14449        0.08536
C          3.07116       -0.30137        0.27733
C          3.80976        0.68765       -0.25776
C          5.23212        0.66433       -0.54776
C          6.20781       -0.29359       -0.39977
Cl         6.00386       -1.88461        0.23588
C          7.48913        0.14836       -0.83909
F          8.55575       -0.63989       -0.77429
C          7.50518        1.41885       -1.31573
H          8.35153        1.96679       -1.70157
S          5.93134        2.10655       -1.23365
C         -3.28823        0.63349        0.22856
C         -3.53896       -0.67642       -0.43099
O         -2.67284       -1.50272       -0.64886
C         -4.95157       -0.89465       -0.82910
C         -5.40757       -2.03371       -1.42784
H         -4.82600       -2.90698       -1.68970
S         -7.09426       -1.94484       -1.74173
C         -7.20764       -0.36773       -1.07038
H         -8.14643        0.16767       -1.03268
C         -5.99397        0.06922       -0.62244
C         -5.74568        1.38717        0.00023
O         -6.61468        2.22281        0.16965
C         -4.33169        1.60849        0.39799
C         -3.88712        2.77549        0.94574
H         -4.47968        3.65548        1.15592
S         -2.21100        2.71455        1.28820
H          3.52697       -1.24479        0.55335
H          3.31868        1.62577       -0.51508
