33
COMP25_000110.log	Energy: -911830.6865091
C         -1.75204       -0.48336       -0.00064
C         -0.27507       -0.52457        0.10826
C          0.49202        0.45067       -0.52751
C          1.87499        0.37845       -0.40260
N          2.84333        1.21272       -0.92718
H          2.66362        2.03248       -1.48168
C          4.09250        0.76639       -0.54063
C          5.35134        1.29610       -0.82305
C          6.45577        0.64016       -0.29854
H          7.44833        1.03202       -0.49980
C          6.31762       -0.51482        0.48661
C          5.06218       -1.03564        0.76343
C          3.93399       -0.39319        0.24950
C          2.51026       -0.64121        0.33783
C          1.72793       -1.60777        0.97052
C          0.34966       -1.54653        0.85230
C         -2.50295        0.73835        0.14693
N         -1.98768        1.94098        0.39582
S         -3.23857        2.97849        0.48608
N         -4.47983        1.95890        0.21798
C         -3.94404        0.75291        0.04301
C         -4.67126       -0.44427       -0.21472
H         -5.75065       -0.44771       -0.29512
C         -3.93940       -1.57545       -0.35051
F         -4.52190       -2.74751       -0.59700
C         -2.50734       -1.59447       -0.24885
F         -1.94548       -2.79105       -0.43050
H          0.02108        1.24671       -1.09289
H          5.46461        2.19050       -1.42834
H          7.20370       -1.00181        0.88121
H          4.95650       -1.92994        1.37094
H          2.19102       -2.39876        1.55292
H         -0.26244       -2.29085        1.34859
