58
COMP87_140002.log	Energy: -1652815.3331850
C          0.13047        0.39538        0.20079
C          1.58465        0.51646        0.31856
C          2.28712        1.49147        0.98455
O          1.79993        2.53647        1.69026
C          3.69232        1.29395        0.90173
F          4.53625        2.14229        1.49564
C          4.08392        0.18963        0.19563
S          2.67262       -0.64266       -0.39057
C          5.40661       -0.32830       -0.09574
C          6.56122        0.25801        0.27582
C          7.88436       -0.26214       -0.01052
C          8.28629       -1.39144       -0.66665
F          7.45904       -2.30513       -1.21196
C          9.69344       -1.58369       -0.76078
O         10.26375       -2.64587       -1.37479
C         10.37708       -0.57043       -0.15874
H         11.44793       -0.45925       -0.07857
S          9.30143        0.60150        0.51351
C         -0.50548       -0.85151        0.23957
C         -1.88948       -0.97618        0.15308
C         -2.68887        0.16393        0.04498
C         -4.13820        0.43434       -0.08410
C         -4.25013        1.94976       -0.18362
O         -5.21804        2.67988       -0.21244
N         -2.95221        2.40829       -0.21597
O         -2.63739        3.72687       -0.05397
C         -2.68403        4.40641       -1.31150
C         -2.01925        1.40194       -0.02317
C         -0.65165        1.55476        0.05008
C         -5.22756       -0.38480       -0.09560
C         -5.15018       -1.87109        0.23459
O         -4.20305       -2.58967        0.47920
N         -6.45618       -2.29764        0.27887
O         -6.78415       -3.62262        0.31965
C         -6.84064       -4.07768        1.67365
C         -7.35586       -1.33149       -0.15347
C         -8.70983       -1.49470       -0.36518
C         -9.41900       -0.38188       -0.81553
H        -10.48650       -0.46771       -0.99444
C         -8.77048        0.82888       -1.04137
C         -7.40045        0.96839       -0.82029
C         -6.66084       -0.12372       -0.36121
H          0.85180        2.40452        1.83093
H          5.43715       -1.25938       -0.65345
H          6.53067        1.18971        0.83162
H          9.55926       -3.21389       -1.71335
H          0.09150       -1.74938        0.36575
H         -2.34669       -1.95213        0.19844
H         -2.39778        5.43424       -1.08522
H         -3.69747        4.38100       -1.72012
H         -1.97336        3.96323       -2.01727
H         -0.20549        2.53700       -0.06460
H         -7.14077       -5.12408        1.60400
H         -7.58333       -3.50794        2.24226
H         -5.85656       -3.99947        2.14297
H         -9.18246       -2.45601       -0.20067
H         -9.33533        1.68533       -1.39473
H         -6.91801        1.91778       -0.99068
