54
COMP87_210000.log	Energy: -2040941.7414451
C          0.47891       -0.55939       -0.03970
C         -0.97220       -0.75775       -0.10033
C         -1.67729       -1.90705       -0.32523
F         -1.11564       -3.09672       -0.53877
C         -3.08923       -1.75705       -0.33828
Cl        -4.10151       -3.12783       -0.62304
C         -3.49509       -0.46194       -0.11609
S         -2.09427        0.54731        0.11410
C         -4.79179        0.18629       -0.03108
C         -5.99399       -0.40434       -0.17075
C         -7.29221        0.24342       -0.08687
C         -7.70263        1.51555        0.23778
Cl        -6.69748        2.84346        0.69528
C         -9.11740        1.67516        0.18016
F         -9.69800        2.83563        0.46338
C         -9.78822        0.55200       -0.18048
H        -10.85464        0.42861       -0.29370
S         -8.68515       -0.73655       -0.45893
C          1.04491        0.68467       -0.33844
C          2.41837        0.90004       -0.27287
C          3.27031       -0.14126        0.09382
C          4.73170       -0.31788        0.20277
C          4.91278       -1.77804        0.58910
O          5.93008       -2.39827        0.83572
N          3.65564       -2.32897        0.67608
C          3.40926       -3.70381        1.03378
C          2.67879       -1.39219        0.36994
C          1.31913       -1.62390        0.32211
C          5.77442        0.54468        0.03478
C          5.59143        2.04944       -0.10428
O          4.57291        2.71557       -0.06829
N          6.84462        2.59461       -0.23695
C          7.08769        4.00801       -0.38118
C          7.82335        1.60760       -0.22235
C          9.18462        1.79779       -0.37930
C         10.00141        0.66694       -0.36783
H         11.07422        0.78387       -0.48809
C          9.45156       -0.60055       -0.21092
C          8.07697       -0.77500       -0.04912
C          7.23480        0.33798       -0.04171
H         -4.74700        1.25305        0.16056
H         -6.03860       -1.46914       -0.37245
H          0.40639        1.50715       -0.64695
H          2.82191        1.87452       -0.49765
H          4.37640       -4.17594        1.20847
H          2.88871       -4.22511        0.22327
H          2.80520       -3.76272        1.94538
H          0.91196       -2.59902        0.55769
H          6.12312        4.51409       -0.33316
H          7.56500        4.22141       -1.34377
H          7.73134        4.37191        0.42660
H          9.60167        2.79047       -0.51323
H         10.09731       -1.47280       -0.20881
H          7.66562       -1.76273        0.08571
