56
COMP87_410000.log	Energy: -1558532.1219386
C         -0.14497        0.53044       -0.19823
C          1.30979        0.69440       -0.24419
C          2.05318        1.82467       -0.42451
F          1.55590        3.06327       -0.61100
C          3.46199        1.65114       -0.42697
O          4.33352        2.67209       -0.59823
C          3.82430        0.34045       -0.23915
S          2.39825       -0.64863       -0.05715
C          5.13715       -0.26648       -0.15078
C          6.31271        0.38260       -0.29563
C          7.60706       -0.25787       -0.12739
C          7.94840       -1.25877        0.74958
O          7.15499       -1.86035        1.66453
C          9.32632       -1.61871        0.64852
F          9.84789       -2.57412        1.41602
C         10.02068       -0.90481       -0.27171
H         11.06540       -1.00298       -0.52589
S          9.00031        0.24892       -1.04928
C         -0.73773       -0.70302       -0.48562
C         -2.11561       -0.88889       -0.42427
C         -2.95186        0.17209       -0.07410
C         -4.40981        0.37016        0.08524
C         -4.55008        1.84002        0.46156
O         -5.54582        2.49713        0.69987
N         -3.28224        2.36795        0.51172
C         -3.00408        3.74409        0.83866
C         -2.33048        1.41064        0.19522
C         -0.96640        1.61479        0.14780
C         -5.47632       -0.47590       -0.02902
C         -5.32541       -1.96183       -0.33597
O         -4.32211       -2.62177       -0.53533
N         -6.58614       -2.50260       -0.34476
C         -6.85351       -3.89562       -0.60101
C         -7.54800       -1.53305       -0.09341
C         -8.91578       -1.73426       -0.04323
C         -9.72431       -0.62816        0.21685
H        -10.80178       -0.75411        0.26586
C         -9.15830        0.62626        0.41157
C         -7.77650        0.81167        0.35835
C         -6.93741       -0.27623        0.10748
H          3.82805        3.48755       -0.71776
H          5.14620       -1.34410        0.00887
H          6.30915        1.44162       -0.53855
H          6.35976       -1.31895        1.77630
H         -0.11698       -1.54316       -0.78221
H         -2.53567       -1.85491       -0.64990
H         -3.95891        4.23687        1.02308
H         -2.49083        4.24065        0.00820
H         -2.38068        3.80866        1.73690
H         -0.54147        2.58315        0.38029
H         -5.89519       -4.38948       -0.76333
H         -7.47922       -4.01035       -1.49263
H         -7.35987       -4.35438        0.25488
H         -9.34381       -2.71870       -0.20078
H         -9.79564        1.48166        0.61119
H         -7.35573        1.79111        0.51391
