32
COMP51_100410.log	Energy: -1672472.2597272
C          1.13427        0.55926        0.12768
C         -0.30478        0.40950        0.04511
C         -1.06229       -0.66812        0.36283
F         -0.55325       -1.81414        0.82038
C         -2.47836       -0.51351        0.19179
C         -3.48558       -1.44139        0.44850
H         -3.24324       -2.43404        0.81262
C         -4.79353       -1.03754        0.22144
S         -6.24619       -1.98848        0.45665
C         -7.24776       -0.66056       -0.07123
H         -8.32290       -0.75944       -0.10993
C         -6.51780        0.42279       -0.40015
F         -7.03016        1.57583       -0.83535
C         -5.09672        0.26254       -0.25063
C         -4.08794        1.19114       -0.50702
H         -4.32928        2.18423       -0.87067
C         -2.78330        0.78551       -0.28101
S         -1.32876        1.72831       -0.54437
C          1.85201        1.67222        0.52036
O          1.36429        2.85493        0.93168
N          3.20310        1.55791        0.48886
C          3.54727        0.36610        0.08391
S          2.24777       -0.71081       -0.29168
C          4.93102       -0.06182       -0.03869
S          6.23796        1.00471        0.35649
C          7.33323       -0.25974       -0.06322
H          8.40360       -0.12648        0.00292
C          6.63187       -1.36810       -0.45868
O          7.12245       -2.55726       -0.86094
N          5.27641       -1.25222       -0.44411
H          0.40412        2.79559        1.03741
H          8.08587       -2.52566       -0.83614
