36
COMP51_100100.log	Energy: -1751939.8626466
C          1.38249       -0.61255       -0.00482
C         -0.05568       -0.46581       -0.00537
C         -0.76073        0.69411       -0.00641
F         -0.13733        1.88306       -0.00783
C         -2.19375        0.57114       -0.00455
C         -3.18707        1.56085       -0.00463
C         -2.92100        3.04250       -0.00669
C         -4.49697        1.08816       -0.00026
S         -5.91108        2.12654        0.00214
C         -6.96737        0.74563        0.00636
H         -8.04139        0.86275        0.00891
C         -6.28576       -0.41548        0.00633
F         -6.89964       -1.60560        0.00922
C         -4.84563       -0.28634        0.00275
C         -3.85037       -1.27429        0.00196
C         -4.11524       -2.75642        0.00398
C         -2.54127       -0.80259       -0.00162
S         -1.13638       -1.85069       -0.00260
C          2.12297       -1.76913       -0.00459
F          1.57797       -2.97915       -0.00603
N          3.46308       -1.67412       -0.00276
C          3.80704       -0.41248       -0.00154
S          2.49946        0.72292       -0.00271
C          5.18795        0.03404        0.00112
S          6.50260       -1.09846        0.00241
C          7.59697        0.23066        0.00624
H          8.66901        0.10664        0.00848
C          6.88152        1.38957        0.00597
F          7.42405        2.59669        0.00848
N          5.53326        1.29418        0.00313
H         -1.85838        3.27220       -0.04009
H         -3.34257        3.50776        0.89248
H         -3.39940        3.51485       -0.87309
H         -5.17873       -2.98319        0.02051
H         -3.65138       -3.22664        0.87948
H         -3.67928       -3.22423       -0.88702
