49
COMP88_000000.log	Energy: -1087815.8780463
C          2.20659       -0.61010       -0.11004
C          3.65016       -0.85150       -0.18916
C          4.69446        0.01501        0.02259
O          4.55752        1.32442        0.37386
C          5.75539        2.07090        0.18899
C          6.94644        1.31754        0.75211
O          7.14428        0.10125        0.04446
C          5.98492       -0.58985       -0.12848
C          5.91649       -1.90328       -0.47087
H          6.73976       -2.57961       -0.64659
S          4.28039       -2.42437       -0.60800
C          1.29923       -1.67794       -0.07189
C         -0.07526       -1.48054       -0.00498
C         -0.59400       -0.18545        0.03928
C         -1.94100        0.41282        0.05491
C         -1.69175        1.91523        0.03747
O         -2.48498        2.83740        0.08892
N         -0.33042        2.09503        0.00397
C          0.30367        3.38861        0.00352
C          0.33445        0.87433       -0.01051
C          1.70114        0.70072       -0.08286
C         -3.18989       -0.13522        0.08780
C         -3.43813       -1.61243        0.34551
O         -2.64634       -2.50628        0.58454
N         -4.79915       -1.80164        0.31586
C         -5.43064       -3.07824        0.53302
C         -5.46380       -0.61092        0.04932
C         -6.83037       -0.44620       -0.09227
C         -7.30126        0.83252       -0.39009
H         -8.36868        0.99453       -0.50667
C         -6.41470        1.89270       -0.54337
C         -5.03954        1.71057       -0.39344
C         -4.53810        0.44601       -0.08234
H          5.60763        3.01809        0.71118
H          5.90855        2.26593       -0.88035
H          6.78625        1.10979        1.81838
H          7.86490        1.89536        0.63253
H          1.66762       -2.69946       -0.07595
H         -0.73887       -2.32967        0.03525
H         -0.48313        4.14050        0.07178
H          0.87391        3.53974       -0.91958
H          0.97876        3.48476        0.86043
H          2.37039        1.55016       -0.12081
H         -4.64333       -3.80458        0.73714
H         -5.99177       -3.38865       -0.35534
H         -6.11331       -3.03055        1.38824
H         -7.51124       -1.28386        0.01875
H         -6.79267        2.88261       -0.77812
H         -4.36500        2.54516       -0.50082
