59
COMP96_000000.log	Energy: -1006882.0778420
C         -0.51953       -0.31646       -0.40144
C          0.95495       -0.47099       -0.52594
C          1.81128        0.06411        0.44317
C          3.16959       -0.16243        0.34688
C          4.27346        0.32742        1.27144
C          4.33308        1.86399        1.29448
C          4.09504       -0.22413        2.69531
C          5.50358       -0.26482        0.59877
C          6.83219       -0.16100        0.98162
C          7.80999       -0.78885        0.20946
H          8.85443       -0.71366        0.49750
C          7.45876       -1.51120       -0.93145
C          6.12538       -1.61743       -1.31989
C          5.15269       -0.99002       -0.54861
C          3.69410       -0.92497       -0.70735
C          2.85175       -1.46929       -1.66812
C          1.48147       -1.24521       -1.56408
C         -1.26140       -1.52070       -0.27925
C         -2.61831       -1.52357       -0.08610
C         -3.33753       -2.82035        0.04164
O         -2.76205       -3.88694       -0.04493
N         -4.71572       -2.74755        0.26442
C         -5.46787       -3.99370        0.39582
C         -5.45392       -1.56753        0.37462
O         -6.65264       -1.60864        0.57110
C         -4.71085       -0.28687        0.24012
C         -5.38691        0.90812        0.34032
H         -6.45669        0.89551        0.51797
C         -4.68625        2.11915        0.21290
C         -3.32719        2.12310       -0.01767
C         -2.63210        3.42819       -0.14678
O         -3.21678        4.48771       -0.02546
N         -1.26943        3.36948       -0.42771
C         -0.55256        4.62559       -0.63911
C         -0.52017        2.20025       -0.61595
O          0.63111        2.29569       -0.98777
C         -1.20231        0.89599       -0.35381
C         -2.60634        0.90990       -0.12477
C         -3.31770       -0.30203        0.01166
H          1.40197        0.65670        1.25724
H          3.41143        2.27845        1.71772
H          4.45521        2.26527        0.28427
H          5.17331        2.20665        1.90868
H          3.17256        0.16088        3.14430
H          4.93260        0.07885        3.33337
H          4.04505       -1.31713        2.68777
H          7.11301        0.40005        1.86961
H          8.23205       -1.99420       -1.52142
H          5.85463       -2.17868       -2.21004
H          3.24555       -2.06189       -2.48880
H          0.80965       -1.66273       -2.30918
H         -0.73886       -2.47079       -0.32152
H         -4.76577       -4.81698        0.28720
H         -6.23784       -4.04260       -0.37647
H         -5.95237       -4.03127        1.37339
H         -5.19832        3.07167        0.29432
H         -1.21980        5.43768       -0.36026
H         -0.26062        4.71921       -1.68758
H          0.34975        4.63738       -0.02595
