32
COMP41_000010.log	Energy: -1288079.1286854
C          1.65258        0.88848       -0.03964
C          0.24978        0.50629       -0.02742
C         -0.80783        1.36004        0.07413
H         -0.70308        2.43490        0.17865
C         -2.08129        0.70428        0.04039
C         -3.35543        1.27318        0.12330
H         -3.47624        2.34700        0.22756
C         -4.44768        0.42266        0.06946
S         -6.13678        0.87857        0.14985
C         -6.62294       -0.78955        0.00579
H         -7.67731       -1.03250        0.00660
C         -5.58605       -1.64849       -0.09738
H         -5.70161       -2.72148       -0.19591
C         -4.30508       -0.98526       -0.06444
C         -3.03191       -1.55076       -0.14481
H         -2.90971       -2.62471       -0.24633
C         -1.93632       -0.70038       -0.09226
S         -0.25599       -1.17377       -0.16090
C          2.80848        0.15380       -0.00324
C          3.21223       -1.27461        0.05742
O          2.53984       -2.28005        0.07619
N          4.61526       -1.25569        0.08441
C          5.42601       -2.45214        0.14817
C          5.16675        0.02951        0.03958
O          6.34928        0.27692        0.04903
C          3.99345        0.93689       -0.01797
C          3.77825        2.27222       -0.07185
H          4.49685        3.07963       -0.09353
S          2.08039        2.59009       -0.11123
H          4.75499       -3.30897        0.07866
H          5.97698       -2.48948        1.09167
H          6.13960       -2.46480       -0.67887
