52
COMP83_000013.log	Energy: -980174.0596755
C         -3.32158       -1.05608        0.19814
C         -4.72787       -1.52772        0.22533
C         -5.14373       -2.49311        1.14909
C         -6.46147       -2.93613        1.16861
H         -6.76854       -3.67933        1.89839
C         -7.38588       -2.42284        0.26292
H         -8.41463       -2.77026        0.27725
C         -6.98378       -1.46139       -0.66004
C         -5.66676       -1.01663       -0.67794
H         -5.35547       -0.28122       -1.41428
C         -2.26195       -1.94901        0.39154
C         -0.94132       -1.52704        0.34422
C         -0.64871       -0.18418        0.09072
C          0.59533        0.58785        0.08219
C          0.17645        2.02874       -0.09024
O          0.87904        2.99958       -0.21667
N         -1.23522        2.03093       -0.19492
C         -2.05446        3.14059       -0.43996
O         -3.23159        3.05082       -0.70225
O         -1.38938        4.28310       -0.33534
C         -2.16561        5.45356       -0.59610
C         -1.72604        0.70862       -0.06635
C         -3.04674        0.29900       -0.02296
C          1.90844        0.21495        0.13164
C          2.35194       -1.19004       -0.19588
O          1.67396       -2.12462       -0.54219
N          3.76570       -1.19338       -0.13427
C          4.61286       -2.26982       -0.42716
O          5.81155       -2.15863       -0.54057
O          3.94541       -3.40990       -0.54555
C          4.74913       -4.54290       -0.87772
C          4.23214        0.09181        0.23664
C          5.53933        0.48277        0.48330
C          5.75268        1.78688        0.92356
H          6.76921        2.11552        1.11745
C          4.68886        2.66121        1.12509
C          3.38388        2.25940        0.86621
C          3.13959        0.96631        0.39493
H         -4.43367       -2.88080        1.87431
H         -7.69660       -1.06079       -1.37470
H         -2.47159       -3.00217        0.54997
H         -0.14566       -2.24337        0.47541
H         -1.46166        6.28090       -0.52142
H         -2.96256        5.55573        0.14411
H         -2.60477        5.40830       -1.59494
H         -3.84615        1.01650       -0.13661
H          4.05050       -5.37603       -0.93674
H          5.50029       -4.72082       -0.10492
H          5.24779       -4.39012       -1.83744
H          6.35876       -0.20484        0.33630
H          4.87335        3.66916        1.48227
H          2.56765        2.94927        1.01193
