48
COMP77_100003.log	Energy: -1986027.2854984
C         -0.19145       -1.61037       -0.47359
C          1.11343       -0.96806       -0.52187
C          1.51215        0.15319       -1.20415
H          0.85213        0.77014       -1.79425
C          2.88819        0.40589       -1.03225
F          3.47620        1.45693       -1.61803
C          3.57222       -0.48354       -0.23976
S          2.45637       -1.68561        0.32940
C          4.96501       -0.53203        0.16055
C          5.90786        0.34490       -0.23790
C          7.30294        0.30148        0.15662
C          7.98048       -0.56186        0.98068
F          7.39126       -1.59108        1.60333
C          9.36384       -0.30040        1.13966
H         10.01873       -0.89960        1.75886
C          9.74414        0.79055        0.41640
H         10.73085        1.22551        0.34316
S          8.42727        1.48612       -0.44576
C         -1.47595       -1.09395       -0.45880
C         -1.87655        0.32621       -0.52793
O         -1.15055        1.23084       -0.90245
C         -3.29255        0.58999       -0.14186
C         -3.80863        1.84510        0.06402
C         -3.10792        3.16452        0.05912
O         -3.46619        4.10380       -0.60854
O         -2.09583        3.17210        0.92173
C         -1.27597        4.34210        0.88981
S         -5.50077        1.79655        0.33863
C         -5.53163        0.07480        0.24810
C         -6.79902       -0.64006        0.57073
O         -6.87758       -1.67312        1.18092
O         -7.85079        0.07391        0.14017
C         -9.13064       -0.47607        0.46070
C         -4.28639       -0.43480       -0.03400
C         -3.93850       -1.86099       -0.28749
O         -4.75843       -2.74185       -0.44139
C         -2.47756       -2.12030       -0.35084
C         -1.95681       -3.37756       -0.30407
H         -2.50937       -4.30410       -0.22990
S         -0.24741       -3.35011       -0.37529
H          5.24068       -1.34280        0.82699
H          5.62996        1.15256       -0.90739
H         -0.51622        4.18456        1.65383
H         -1.86796        5.23326        1.11021
H         -0.81349        4.44421       -0.09449
H         -9.85842        0.23558        0.07356
H         -9.23830       -0.59014        1.54188
H         -9.25257       -1.45092       -0.01662
