54
COMP97_300002.log	Energy: -1594761.7860381
C          1.07797       -0.20451        0.35486
C         -0.38053       -0.32115        0.58723
C         -0.99731       -0.75080        1.72248
H         -0.47433       -0.99632        2.63864
C         -2.41669       -0.81869        1.58798
C         -3.25634       -1.23339        2.66322
N         -3.93331       -1.57356        3.54223
C         -2.87012       -0.45495        0.32994
S         -1.52605       -0.02873       -0.67338
C         -4.19941       -0.38832       -0.25193
C         -5.35162       -0.66496        0.38886
C         -6.68084       -0.60105       -0.19449
C         -7.12986       -0.26667       -1.46391
C         -6.28421        0.11913       -2.54563
N         -5.60273        0.43376       -3.43071
C         -8.54956       -0.34360       -1.60445
H         -9.06660       -0.11772       -2.52853
C         -9.16320       -0.73078       -0.45392
H        -10.22099       -0.87067       -0.28129
S         -8.03176       -1.00666        0.81027
C          1.78110       -1.41908        0.16639
C          3.13017       -1.43447       -0.08047
C          3.81398       -2.74349       -0.27641
O          3.25120       -3.81047       -0.19375
N          5.18225       -2.65321       -0.55577
O          5.80463       -3.82778       -0.87869
C          6.36985       -4.44410        0.28039
C          5.97294       -1.49940       -0.63634
O          7.16164       -1.56281       -0.85000
C          5.24246       -0.21926       -0.42535
C          5.93626        0.96610       -0.49623
H          7.00069        0.94102       -0.70293
C          5.26373        2.18556       -0.30192
C          3.91326        2.20427       -0.03587
C          3.25235        3.51884        0.17068
O          3.82485        4.58097        0.08462
N          1.89152        3.43983        0.47378
O          1.29486        4.61659        0.83538
C          0.69513        5.25447       -0.29432
C          1.08206        2.29876        0.57224
O         -0.08913        2.40582        0.85053
C          1.77259        0.99825        0.30614
C          3.17026        0.99891        0.04206
C          3.85232       -0.22282       -0.15792
H         -4.22623       -0.08503       -1.29419
H         -5.32533       -0.96459        1.43230
H          1.24254       -2.36002        0.20913
H          6.83151       -5.35770       -0.09476
H          5.58819       -4.69245        1.00421
H          7.13181       -3.79758        0.72527
H          5.79408        3.13009       -0.35652
H          0.25488        6.16629        0.10972
H         -0.08817        4.62183       -0.72176
H          1.45396        5.50595       -1.04088
