48
COMP71_200002.log	Energy: -2344684.5643940
C          0.83792       -1.85955       -0.23856
C         -0.53272       -1.34769       -0.16711
C         -1.24183       -1.04608        0.94707
Cl        -0.53185       -1.25956        2.51725
C         -2.57370       -0.52941        0.69440
C         -3.57111       -0.10863        1.58901
C         -3.40944       -0.12122        3.08800
C         -4.75453        0.34148        1.00740
S         -6.13511        0.92018        1.92765
C         -7.02066        1.22687        0.47420
H         -8.02268        1.63029        0.51713
C         -6.32860        0.91466       -0.64108
Cl        -7.04657        1.15090       -2.20969
C         -4.99532        0.39196       -0.39225
C         -3.99929       -0.03132       -1.28594
C         -4.16160       -0.01519       -2.78497
C         -2.81368       -0.47706       -0.70480
S         -1.43304       -1.04010       -1.62458
C          2.01751       -1.15858       -0.22594
C          2.12857        0.32543       -0.14884
O          1.15233        1.05358       -0.11593
C          3.51797        0.81933       -0.12073
C          3.85860        2.14047       -0.03145
O          3.01230        3.16224        0.03578
C          3.53307        4.47271        0.16822
S          5.60534        2.37216       -0.01869
C          5.85790        0.63320       -0.13962
O          7.07283        0.09674       -0.18207
C          8.19966        0.95210       -0.11042
C          4.67664       -0.05296       -0.18332
C          4.56572       -1.51774       -0.28048
O          5.51741       -2.27741       -0.34283
C          3.16471       -2.01372       -0.29194
C          2.83568       -3.33656       -0.36044
H          3.52493       -4.16796       -0.41778
S          1.13901       -3.56530       -0.33955
H         -3.21111       -1.12986        3.45975
H         -4.31058        0.24277        3.58752
H         -2.57785        0.51501        3.40234
H         -5.01172       -0.62550       -3.10068
H         -3.27232       -0.40665       -3.28486
H         -4.32803        0.99950       -3.15686
H          2.66708        5.13239        0.20631
H          4.15648        4.73845       -0.69449
H          4.11196        4.57374        1.09427
H          9.06976        0.29943       -0.16916
H          8.21722        1.50093        0.83906
H          8.21299        1.65740       -0.95038
