46
COMP72_420003.log	Energy: -2484117.8126447
C          0.23119       -1.30388        0.09272
C          1.43518       -0.49660        0.09629
C          1.71759        0.68119        0.76647
O          0.88679        1.41931        1.49799
C          3.10293        1.03584        0.66745
Cl         3.71680        2.45083        1.43545
C          3.85852        0.15806       -0.05657
S          2.87403       -1.12890       -0.66960
C          5.27672        0.23113       -0.39481
S          5.90245        1.51644       -1.37788
C          7.50041        0.87081       -1.31316
H          8.31687        1.37519       -1.81192
C          7.55561       -0.27708       -0.57832
O          8.63212       -1.04734       -0.30958
C          6.27451       -0.64273       -0.05693
Cl         6.06370       -2.04300        0.92789
C         -1.12231       -0.99069        0.05766
C         -1.71214        0.33957       -0.09081
O         -1.05555        1.36472       -0.26058
C         -3.19587        0.39577       -0.04997
C         -3.92509        1.56099       -0.03155
C         -3.45511        2.96900        0.14985
O         -2.68100        3.32450        0.99889
O         -4.07691        3.78270       -0.71061
C         -3.74736        5.16953       -0.57915
S         -5.61301        1.24243       -0.08120
C         -5.36407       -0.46198       -0.04220
C         -6.54727       -1.36281        0.08509
O         -6.61886       -2.30611        0.82637
O         -7.54525       -0.92375       -0.69563
C         -8.76250       -1.66879       -0.59937
C         -4.02646       -0.77090       -0.04902
C         -3.43432       -2.13494       -0.11357
O         -4.08546       -3.14032       -0.31182
C         -1.95955       -2.16355        0.03390
C         -1.25538       -3.32610        0.05751
H         -1.66399       -4.32670        0.02049
S          0.43059       -3.03826        0.14009
H          0.05874        1.54632        0.98214
H          9.41371       -0.65515       -0.71619
H         -4.32752        5.67984       -1.34639
H         -2.67763        5.31874       -0.73945
H         -4.01647        5.53215        0.41556
H         -9.44586       -1.20297       -1.30783
H         -9.16288       -1.61410        0.41579
H         -8.58715       -2.71435       -0.86072
