54
COMP97_320002.log	Energy: -2171537.0497293
C          1.51125       -0.12789        0.24127
C          0.08841       -0.10994        0.64860
C         -0.40680       -0.08788        1.91594
Cl         0.58230        0.00677        3.32495
C         -1.83536       -0.12682        1.96865
C         -2.59244       -0.09398        3.17618
N         -3.22375       -0.06442        4.14785
C         -2.41197       -0.18381        0.71591
S         -1.19156       -0.20774       -0.51158
C         -3.83293       -0.23136        0.43355
C         -4.37042       -0.05143       -0.78640
C         -5.78447       -0.11886       -1.11181
C         -6.85166       -0.67064       -0.42492
C         -6.74115       -1.35844        0.81782
N         -6.64323       -1.92026        1.82751
C         -8.09286       -0.51065       -1.12392
Cl        -9.59323       -1.10210       -0.51093
C         -7.96312        0.13767       -2.31124
H         -8.74279        0.37763       -3.01938
S         -6.32625        0.57158       -2.60454
C          2.10947       -1.39630        0.05949
C          3.43369       -1.51557       -0.27899
C          4.01300       -2.87558       -0.46401
O          3.37779       -3.89522       -0.32740
N          5.37068       -2.89375       -0.80206
O          5.89236       -4.11983       -1.11137
C          6.45583       -4.74374        0.04504
C          6.23658       -1.80347       -0.95718
O          7.40732       -1.95828       -1.21716
C          5.60698       -0.46754       -0.76538
C          6.37876        0.66208       -0.90598
H          7.42975        0.55305       -1.15086
C          5.80335        1.93349       -0.72921
C          4.46957        2.05883       -0.41437
C          3.90934        3.42245       -0.22767
O          4.55302        4.43793       -0.35984
N          2.55236        3.45147        0.10387
O          2.03530        4.68333        0.39648
C          1.50903        5.31366       -0.77346
C          1.66044        2.37783        0.22240
O          0.48413        2.57804        0.41759
C          2.27145        1.02095        0.06852
C          3.64884        0.91247       -0.26233
C          4.23315       -0.36211       -0.43966
H         -4.46388       -0.41369        1.29946
H         -3.71689        0.18827       -1.62420
H          1.51782       -2.29578        0.19553
H          6.83788       -5.69769       -0.31919
H          5.68589       -4.91537        0.80287
H          7.27777       -4.14186        0.44326
H          6.39844        2.83428       -0.83346
H          1.13208        6.27322       -0.41878
H          0.68797        4.72365       -1.19062
H          2.29933        5.47409       -1.51258
