56
COMP97_000003.log	Energy: -1621314.8603759
C          0.32180       -0.18440        0.31202
C         -1.11485       -0.44165        0.52522
C         -1.65980       -1.12817        1.57849
H         -1.07205       -1.46970        2.42348
C         -3.06230       -1.29880        1.46878
H         -3.67313       -1.76757        2.23130
C         -3.58033       -0.77683        0.30854
S         -2.32787       -0.04367       -0.64328
C         -4.95397       -0.77427       -0.17242
C         -5.90845       -1.60947        0.27228
C         -7.30276       -1.55236       -0.14056
C         -7.99778       -0.52009       -0.72132
H         -7.55596        0.45025       -0.91690
C         -9.35406       -0.84243       -0.99997
H        -10.05846       -0.15379       -1.45134
C         -9.68224       -2.11172       -0.62140
H        -10.63856       -2.60808       -0.71077
S         -8.33971       -2.93234        0.07663
C          1.15588       -1.33343        0.29001
C          2.50320       -1.24440        0.05961
C          3.32313       -2.48374        0.05008
O          2.87722       -3.58969        0.26506
N          4.68045       -2.30481       -0.22984
C          5.49289       -3.50833       -0.28667
O          5.69986       -4.10940       -1.29857
O          5.93250       -3.79455        0.92524
C          6.74373       -4.97243        1.00725
C          5.34279       -1.09574       -0.46419
O          6.53925       -1.07671       -0.65546
C          4.48908        0.12006       -0.45421
C          5.06324        1.34682       -0.69725
H          6.12768        1.40132       -0.89759
C          4.26734        2.50415       -0.68271
C          2.91839        2.42107       -0.41737
C          2.12131        3.67052       -0.40549
O          2.57499        4.76759       -0.65350
N          0.78005        3.51059       -0.07010
C         -0.02029        4.72186       -0.01287
O         -0.70087        5.09667       -0.92126
O          0.14116        5.29899        1.16377
C         -0.58218        6.52297        1.33561
C          0.12298        2.32604        0.29086
O         -1.00250        2.39005        0.73185
C          0.90306        1.06610        0.11685
C          2.29686        1.17182       -0.16137
C          3.10345        0.01163       -0.18865
H         -5.20200       -0.04423       -0.94000
H         -5.64052       -2.38739        0.98481
H          0.71126       -2.31125        0.44188
H          6.97698       -5.08919        2.06407
H          7.65544       -4.83893        0.42124
H          6.18979       -5.83633        0.63457
H          4.69865        3.48019       -0.87674
H         -0.35662        6.85205        2.34842
H         -1.65260        6.34562        1.21385
H         -0.24593        7.26051        0.60386
