51
COMP79_000003.log	Energy: -1886201.8809594
C         -0.47022       -1.75492        0.15349
C         -1.78972       -1.14783        0.15351
C         -2.23157       -0.01207        0.79605
C         -3.60665        0.21760        0.58998
C         -4.20359       -0.73861       -0.20018
S         -3.09983       -1.94058       -0.72013
C         -5.59754       -0.39779       -0.37249
C         -5.85555        0.76557        0.31420
C         -4.60437        1.28689        1.00301
C         -4.77970        1.33868        2.52923
C         -4.19232        2.66460        0.45712
C         -7.21024        1.17490        0.20613
C         -7.93971        0.30929       -0.56089
H         -8.98970        0.36950       -0.81264
S         -6.99337       -1.01640       -1.16234
C          0.80339       -1.20543        0.17427
C          1.15918        0.22480        0.18587
O          0.37271        1.13655        0.38518
C          2.60997        0.51305       -0.00376
C          3.11483        1.78236       -0.13054
C          2.36288        3.06999       -0.23801
O          2.50280        3.99007        0.52957
O          1.57488        3.07115       -1.31035
C          0.68691        4.18516       -1.41274
S          4.82866        1.78643       -0.11119
C          4.89636        0.07057        0.05963
C          6.22299       -0.57849        0.25729
O          6.44067       -1.50330        0.99397
O          7.16187        0.06638       -0.45428
C          8.49616       -0.41186       -0.26981
C          3.63705       -0.48053        0.08127
C          3.29108       -1.92881        0.05426
O          4.11065       -2.81448       -0.07956
C          1.83429       -2.20940        0.11359
C          1.34683       -3.47910        0.05874
H          1.92682       -4.38977       -0.00007
S         -0.36420       -3.49561        0.09300
H         -1.57181        0.61422        1.37809
H         -5.07196        0.36074        2.92259
H         -5.55183        2.06655        2.80122
H         -3.84351        1.64066        3.01096
H         -4.06563        2.62992       -0.62882
H         -3.24586        2.98425        0.90632
H         -4.95464        3.41440        0.69515
H         -7.63350        2.06036        0.66616
H          0.17132        4.05867       -2.36353
H          1.24179        5.12565       -1.39401
H         -0.02640        4.16276       -0.58532
H          9.12049        0.21418       -0.90571
H          8.56822       -1.45987       -0.56872
H          8.79307       -0.31627        0.77739
