32
COMP57_200000.log	Energy: -2031107.4976101
C          2.39852       -0.29676        0.18186
C          0.98229        0.01652        0.23353
C          0.38783        1.22724        0.46568
H          0.92890        2.14450        0.66572
C         -1.02886        1.15281        0.45277
Cl        -1.98101        2.56551        0.78140
C         -1.53646       -0.10368        0.21242
S         -0.21324       -1.21467       -0.01670
C         -2.88634       -0.63468        0.13338
C         -4.01592        0.07362       -0.04546
C         -5.35044       -0.48642       -0.10798
C         -6.52310        0.18931       -0.34842
Cl        -6.60424        1.90002       -0.62935
C         -7.68995       -0.62455       -0.35357
H         -8.68694       -0.24099       -0.52821
C         -7.39096       -1.92931       -0.11155
H         -8.07373       -2.76567       -0.05620
S         -5.70190       -2.17608        0.12510
C          3.01466       -1.50558        0.38396
H          2.49851       -2.42587        0.63255
N          4.37383       -1.51530        0.27710
C          4.81961       -0.32281       -0.00175
S          3.60092        0.90517       -0.17092
C          6.22765       -0.00142       -0.16955
S          7.45548       -1.22281       -0.02150
C          8.63475       -0.01151       -0.34572
H          9.68978       -0.24318       -0.37907
C          8.03011        1.19496       -0.53775
H          8.54442        2.12229       -0.75690
N          6.66519        1.19691       -0.43709
H         -2.95354       -1.71880        0.21750
H         -3.97198        1.15020       -0.16707
