64
COMP87_330003.log	Energy: -1807672.9665932
C         -0.19566       -0.55865        0.15819
C         -1.64989       -0.71366        0.29896
C         -2.35712       -1.76927        0.83209
C         -1.75213       -2.93227        1.39875
N         -1.26933       -3.87746        1.86405
C         -3.77693       -1.56359        0.81369
C         -4.69468       -2.52466        1.32922
N         -5.45535       -3.29591        1.74360
C         -4.14214       -0.34777        0.26635
S         -2.72922        0.52283       -0.23070
C         -5.43580        0.27740        0.05060
C         -6.63090       -0.26338        0.35647
C         -7.92420        0.36508        0.14329
C         -8.28819        1.58755       -0.39353
C         -7.37141        2.55951       -0.88872
N         -6.61417        3.34238       -1.28723
C         -9.71058        1.79038       -0.40464
C        -10.34558        2.96814       -0.90585
N        -10.86603        3.92065       -1.31069
C        -10.39443        0.72811        0.11887
H        -11.46556        0.63098        0.22532
S         -9.33803       -0.51602        0.62602
C          0.41404        0.66958        0.43463
C          1.78590        0.83096        0.30739
C          2.57750       -0.24204       -0.10834
C          4.02798       -0.44236       -0.23365
C          4.20005       -1.88531       -0.63900
O          5.21047       -2.45180       -0.97180
N          2.90673       -2.45188       -0.68582
C          2.58220       -3.76931       -1.05315
O          1.46789       -4.10623       -1.37484
O          3.63145       -4.57164       -0.97549
C          3.37769       -5.92913       -1.34895
C          1.94371       -1.47367       -0.36501
C          0.57621       -1.65146       -0.25086
C          5.08752        0.40332       -0.07240
C          4.92613        1.90745       -0.09060
O          3.93149        2.54092       -0.34089
N          6.20585        2.45814        0.12466
C          6.52947        3.82225        0.18054
O          7.66468        4.23477        0.14959
O          5.44849        4.58081        0.29392
C          5.70363        5.98672        0.32923
C          7.15981        1.41776        0.24490
C          8.51555        1.53786        0.50596
C          9.25148        0.36457        0.65625
H         10.31649        0.43608        0.85467
C          8.64404       -0.88378        0.56077
C          7.28525       -0.99087        0.29176
C          6.52242        0.16769        0.11294
H         -5.39193        1.26486       -0.39824
H         -6.67569       -1.25091        0.80465
H         -0.18496        1.50835        0.77607
H          2.23177        1.78930        0.51949
H          4.33673       -6.43384       -1.24608
H          3.02213       -5.98160       -2.38015
H          2.63227       -6.37165       -0.68481
H          0.12668       -2.60434       -0.48928
H          4.72229        6.45073        0.41303
H          6.20418        6.30730       -0.58691
H          6.32644        6.24131        1.18965
H          8.98038        2.50910        0.58633
H          9.23199       -1.78663        0.68888
H          6.82764       -1.96305        0.20138
