33
COMP27_210300.log	Energy: -2021457.5287391
C          2.96396        0.25498        0.04741
C          1.59489       -0.19997        0.28793
C          1.21523       -1.34478        0.93066
F          2.06186       -2.18342        1.50690
C         -0.18701       -1.55103        0.97055
Cl        -0.88720       -2.91701        1.75430
C         -0.89399       -0.54917        0.35036
S          0.19041        0.63841       -0.29968
C         -2.33506       -0.45324        0.22455
C         -2.99209        0.66539       -0.13075
C         -4.42670        0.81937       -0.29234
C         -5.46339       -0.08298       -0.34750
Cl        -5.34042       -1.80109       -0.25134
C         -6.73126        0.54121       -0.52652
F         -7.85055       -0.16796       -0.60666
C         -6.67482        1.89502       -0.60918
H         -7.49681        2.58241       -0.74162
S         -5.05007        2.43682       -0.46788
C          3.91444       -0.64934       -0.53600
N          3.65819       -1.90075       -0.91684
S          5.04537       -2.49161       -1.51219
N          6.01980       -1.20583       -1.33038
C          5.27068       -0.24758       -0.78121
C          5.70150        1.06899       -0.47050
H          6.72306        1.37300       -0.66367
C          4.78523        1.92959        0.06724
C          5.19292        3.27008        0.38449
N          5.54493        4.34610        0.62892
C          3.41986        1.52602        0.33712
C          2.55131        2.48634        0.95612
N          1.86721        3.27340        1.46108
H         -2.87470       -1.36381        0.45825
H         -2.42020        1.57671       -0.30372
