41
COMP45_000022.log	Energy: -990618.3868282
C          1.49983        1.46928       -0.15093
C          0.04234        1.35455       -0.03641
C         -0.58017        0.19643       -0.49987
C         -1.95309        0.09790       -0.32773
N         -2.79643       -0.93460       -0.66679
O         -2.38758       -2.12646       -1.19081
C         -1.89998       -2.99199       -0.15557
C         -4.09021       -0.65219       -0.28341
C         -5.24281       -1.42398       -0.41091
C         -6.42482       -0.87244        0.06090
H         -7.34542       -1.44234       -0.02208
C         -6.46021        0.40761        0.63842
C         -5.30484        1.16580        0.75679
C         -4.09741        0.63657        0.29564
C         -2.73009        1.11527        0.26941
C         -2.08941        2.27786        0.70059
C         -0.71688        2.39015        0.55170
C          2.46859        0.50121       -0.13257
C          2.54609       -0.97063        0.05402
O          1.69766       -1.82064        0.18715
N          3.93009       -1.22326        0.06276
O          4.41811       -2.49181        0.05330
C          4.70822       -2.92758        1.38330
C          4.76417       -0.10849       -0.14660
O          5.96714       -0.13017       -0.19301
C          3.79424        1.00901       -0.24975
C          3.86390        2.35643       -0.36914
H          4.73666        2.98723       -0.46470
S          2.27079        3.02813       -0.35126
H         -0.01826       -0.60611       -0.96011
H         -1.66858       -3.93039       -0.66070
H         -2.67305       -3.15085        0.60360
H         -0.99315       -2.58075        0.29855
H         -5.20698       -2.40638       -0.86864
H         -7.40451        0.80665        0.99477
H         -5.33668        2.15495        1.20442
H         -2.65427        3.08054        1.16494
H         -0.21405        3.27773        0.92382
H          5.10892       -3.93494        1.26540
H          3.79458       -2.95418        1.98518
H          5.45899       -2.27820        1.84352
