30
COMP53_000100.log	Energy: -1032105.1732322
C         -1.01022       -0.32576       -0.09345
C         -2.45151       -0.05573        0.05572
C         -2.98514        1.09865       -0.53006
C         -4.33378        1.42161       -0.42287
C         -4.89621        2.66783       -1.05845
C         -5.15459        0.55049        0.29650
H         -6.21420        0.77186        0.39977
C         -4.63426       -0.59259        0.88719
C         -3.28054       -0.92123        0.78938
C         -2.75021       -2.16079        1.46237
C         -0.37256       -1.42010       -0.60902
F         -1.01002       -2.48108       -1.08916
N          0.97605       -1.42335       -0.64785
C          1.42638       -0.29992       -0.15577
S          0.21286        0.81085        0.38385
C          2.84135        0.01349       -0.05473
S          4.05146       -1.10687       -0.59380
C          5.25859        0.02483       -0.11498
H          6.31541       -0.16104       -0.22912
C          4.64692        1.12687        0.39940
F          5.29186        2.18721        0.86083
N          3.29538        1.13415        0.43957
H         -2.32503        1.74975       -1.09870
H         -4.13288        3.20510       -1.62851
H         -5.29192        3.35334       -0.30057
H         -5.71759        2.42603       -1.74176
H         -5.29279       -1.24740        1.45211
H         -3.47001       -2.54330        2.19114
H         -1.80932       -1.96063        1.98570
H         -2.55258       -2.95408        0.73478
