29
COMP22_230000.log	Energy: -1848406.5032248
C         -2.49861       -0.40423        0.89011
C         -1.16608        0.15502        0.61461
C         -0.82459        1.41573        0.21213
Cl        -1.94854        2.70232       -0.00231
C          0.58126        1.59045        0.01741
C          1.16081        2.81856       -0.42114
N          1.62940        3.81880       -0.77249
C          1.29966        0.43954        0.27954
S          0.24286       -0.83723        0.75964
C          2.74276        0.24455        0.21757
S          3.83473        1.45463        0.79200
C          5.20953        0.50018        0.41356
H          6.20907        0.86961        0.59234
C          4.85371       -0.69809       -0.12170
Cl         5.98025       -1.90249       -0.62564
C          3.43611       -0.86098       -0.23963
C          2.82652       -2.02574       -0.79402
N          2.33840       -2.97873       -1.23793
C         -3.49476       -0.45095       -0.13969
N         -3.34834       -0.03118       -1.39583
S         -4.76509       -0.31680       -2.13859
N         -5.60981       -0.98426       -0.92124
C         -4.79331       -1.00637        0.13462
C         -5.09735       -1.52734        1.42520
H         -6.07827       -1.94695        1.61689
C         -4.12261       -1.48385        2.37755
H         -4.31799       -1.87587        3.37027
C         -2.83286       -0.92658        2.11153
H         -2.10065       -0.90538        2.91340
