36
COMP57_030300.log	Energy: -1685761.9162053
C          1.61244        0.38776        0.29144
C          0.22308       -0.02505        0.40733
C         -0.28456       -1.17450        0.98995
C          0.51741       -2.16131        1.64248
N          1.15240       -2.97346        2.17275
C         -1.70037       -1.26400        0.92304
H         -2.26009       -2.07574        1.37047
C         -2.27204       -0.19689        0.27855
S         -1.06234        0.93146       -0.23859
C         -3.67647        0.07034        0.00422
C         -4.62859       -0.87696        0.01517
C         -6.04616       -0.62326       -0.19392
C         -6.73600        0.56037       -0.16666
H         -6.28743        1.52119        0.05340
C         -8.12730        0.39143       -0.43312
C         -9.06937        1.46721       -0.46112
N         -9.82694        2.34398       -0.48364
C         -8.47566       -0.91841       -0.65025
H         -9.46029       -1.30931       -0.86464
S         -7.11831       -1.95060       -0.53784
C          2.15237        1.65639        0.39874
C          1.39932        2.83756        0.69788
N          0.77902        3.78633        0.93736
N          3.50357        1.75658        0.22485
C          4.01205        0.58371       -0.01612
S          2.88527       -0.73375       -0.05345
C          5.43286        0.35891       -0.23659
S          6.58103        1.66363       -0.14709
C          7.82122        0.53942       -0.50797
H          8.85859        0.83151       -0.58926
C          7.29013       -0.71316       -0.66724
C          8.06594       -1.87644       -0.98222
N          8.71774       -2.79845       -1.23914
N          5.93157       -0.80983       -0.51149
H         -3.94090        1.09981       -0.22632
H         -4.34355       -1.91391        0.18146
