40
COMP41_400000.log	Energy: -1431776.9727469
C         -2.17848       -0.78241       -0.32280
C         -0.76013       -0.49641       -0.20844
C          0.22603       -1.37000        0.16018
O          0.03920       -2.65576        0.54114
C          1.55888       -0.80564        0.12025
C          2.79479       -1.40072        0.42218
C          2.98602       -2.82337        0.87800
C          3.90869       -0.57804        0.27593
S          5.54916       -1.10894        0.59231
C          6.16461        0.46562        0.17078
H          7.22905        0.65690        0.21479
C          5.19620        1.34034       -0.18592
O          5.39236        2.63234       -0.56002
C          3.85670        0.77675       -0.14027
C          2.62161        1.37185       -0.43452
C          2.43149        2.79841       -0.87835
C          1.50591        0.54739       -0.29512
S         -0.12595        1.09244       -0.60143
C         -3.28040       -0.02782       -0.02433
C         -3.57039        1.29911        0.57825
O         -2.82360        2.16293        0.97202
N         -4.97458        1.37909        0.61044
C         -5.69418        2.52176        1.12849
C         -5.62061        0.25028        0.09931
O         -6.81837        0.10361        0.03476
C         -4.51899       -0.65913       -0.31108
C         -4.40580       -1.90346       -0.83238
H         -5.18100       -2.60124       -1.11696
S         -2.73309       -2.30642       -1.01765
H         -0.90189       -2.82095        0.69412
H          2.04479       -3.36012        0.96529
H          3.48713       -2.84316        1.85364
H          3.62878       -3.36478        0.17292
H          6.33658        2.82705       -0.52722
H          3.37446        3.33423       -0.95545
H          1.78598        3.33369       -0.17097
H          1.93556        2.82897       -1.85648
H         -4.95661        3.26592        1.43043
H         -6.30157        2.22939        1.98904
H         -6.34958        2.93508        0.35791
