62
COMP91_200023.log	Energy: -2341043.5157503
C          0.88727       -0.03317       -0.13405
C         -0.57696       -0.24994       -0.10836
C         -1.32149       -0.59175        0.96914
Cl        -0.62570       -0.70561        2.55276
C         -2.72330       -0.79444        0.67346
C         -3.80174       -1.14837        1.49258
O         -3.67842       -1.37592        2.83097
C         -3.35314       -2.72318        3.16264
C         -5.05816       -1.24331        0.90343
S         -6.51469       -1.64907        1.77812
C         -7.44212       -1.55215        0.31368
H         -8.50528       -1.74861        0.32718
C         -6.70383       -1.21939       -0.76806
Cl        -7.40946       -1.08011       -2.34704
C         -5.29987       -1.01746       -0.47367
C         -4.21917       -0.66592       -1.29279
O         -4.33873       -0.43782       -2.63173
C         -4.65495        0.91307       -2.96158
C         -2.96458       -0.57224       -0.70318
S         -1.50940       -0.17737       -1.58227
C          1.69607       -1.18194       -0.30453
C          3.06434       -1.09116       -0.33036
C          3.87210       -2.32571       -0.50847
O          3.39356       -3.43232       -0.62594
N          5.25675       -2.13996       -0.53732
C          6.06132       -3.32925       -0.76426
O          6.38950       -3.69706       -1.85285
O          6.34088       -3.89271        0.39636
C          7.12225       -5.09060        0.31008
C          5.95174       -0.93716       -0.37915
O          7.16320       -0.91956       -0.38944
C          5.11075        0.27535       -0.20359
C          5.71775        1.50095       -0.05547
H          6.80070        1.55860       -0.07354
C          4.93404        2.65538        0.11772
C          3.56038        2.56812        0.14052
C          2.77087        3.80830        0.33370
O          3.26056        4.91038        0.45573
N          1.38904        3.63260        0.37074
C          0.59542        4.82651        0.61469
O          0.29593        5.19840        1.70986
O          0.29285        5.39101       -0.54009
C         -0.48676        6.58827       -0.43574
C          0.67095        2.44413        0.19830
O         -0.53929        2.47470        0.21018
C          1.48798        1.20949        0.00817
C          2.90589        1.31968       -0.01232
C          3.69937        0.16308       -0.18405
H         -3.29469       -2.76246        4.25081
H         -2.38612       -3.00958        2.73492
H         -4.12937       -3.41209        2.80851
H         -4.69839        0.95712       -4.05033
H         -3.88127        1.59714       -2.59301
H         -5.62679        1.19951       -2.54548
H          1.22739       -2.15424       -0.41502
H          7.26525       -5.41633        1.33880
H          8.08114       -4.87900       -0.16730
H          6.58334       -5.84617       -0.26534
H          5.39555        3.62933        0.23948
H         -0.64297        6.92124       -1.46028
H          0.05899        7.34016        0.13801
H         -1.43951        6.37318        0.05242
