37
COMP42_430003.log	Energy: -1568626.3159825
C         -1.06723        1.11021        0.14615
C          0.12774        0.29701        0.10165
C          0.31762       -1.01228        0.51210
O         -0.57761       -1.87235        0.98079
C          1.69929       -1.39663        0.47179
C          2.11449       -2.69785        0.88237
N          2.44549       -3.75955        1.20975
C          2.54001       -0.39484        0.02856
S          1.64143        1.02114       -0.37254
C          3.97941       -0.44292       -0.17981
S          4.77024       -1.90187       -0.65589
C          6.30904       -1.13417       -0.71236
H          7.19153       -1.70138       -0.97464
C          6.22900        0.18744       -0.38034
O          7.22353        1.09377       -0.30896
C          4.89120        0.59425       -0.07503
C          4.58368        1.92977        0.31851
N          4.34712        3.02093        0.63134
C         -2.40452        0.79699        0.06596
C         -3.22216       -0.39914       -0.16279
O         -2.86974       -1.55393       -0.32144
N         -4.55414        0.05258       -0.21644
C         -5.69284       -0.76632       -0.46217
O         -6.61621       -0.41723       -1.14278
O         -5.57145       -1.91870        0.18046
C         -6.62930       -2.85422       -0.05552
C         -4.66694        1.47368       -0.03360
O         -5.69008        2.09598       -0.00386
C         -3.26826        1.91990        0.13731
C         -2.63229        3.10649        0.28238
H         -3.04849        4.10241        0.34372
S         -0.92619        2.84737        0.35346
H         -1.44209       -1.79404        0.50781
H          8.06568        0.67361       -0.52097
H         -6.33455       -3.75892        0.47308
H         -6.73433       -3.04713       -1.12509
H         -7.56990       -2.46324        0.33835
