54
COMP97_310002.log	Energy: -1719261.3347853
C          1.27960        0.03580        0.11964
C         -0.16167        0.24423        0.32743
C         -0.77882        1.04416        1.24145
F         -0.12756        1.83848        2.07646
C         -2.19775        0.96486        1.25004
C         -2.99475        1.73100        2.14635
N         -3.65351        2.34829        2.87441
C         -2.67370        0.06649        0.30704
S         -1.35583       -0.64994       -0.55217
C         -4.01824       -0.33964       -0.05596
C         -5.15392        0.14919        0.47961
C         -6.50021       -0.25718        0.12013
C         -6.97565       -1.18271       -0.79589
C         -6.17774       -1.99756       -1.64676
N         -5.52059       -2.65822       -2.33758
C         -8.40152       -1.24153       -0.80338
F         -9.05163       -2.06754       -1.61314
C         -9.00235       -0.39538        0.07176
H        -10.06032       -0.26372        0.24159
S         -7.82149        0.50554        0.93783
C          1.74490       -1.30186        0.19290
C          3.07448       -1.60759        0.07431
C          3.49612       -3.03383        0.16367
O          2.72413       -3.94812        0.33858
N          4.87321       -3.24612        0.04196
O          5.27297       -4.55274       -0.01922
C          5.58890       -5.05421        1.28130
C          5.88282       -2.28765       -0.11789
O          7.04890       -2.60306       -0.17320
C          5.40746       -0.87871       -0.19782
C          6.32951        0.12841       -0.36316
H          7.38189       -0.12490       -0.43027
C          5.89880        1.46393       -0.44469
C          4.56001        1.77440       -0.36220
C          4.16299        3.20261       -0.45611
O          4.94909        4.11252       -0.59210
N          2.78661        3.42113       -0.40089
O          2.38471        4.72821       -0.41453
C          2.19850        5.19947       -1.75158
C          1.75507        2.47404       -0.32300
O          0.60582        2.82258       -0.45834
C          2.19651        1.06111       -0.10027
C          3.58474        0.75912       -0.18962
C          4.02749       -0.58065       -0.10501
H         -4.07107       -1.10218       -0.82714
H         -5.10040        0.91401        1.24849
H          1.04121       -2.10989        0.36700
H          5.87424       -6.09253        1.11102
H          4.71126       -5.01314        1.93314
H          6.42952       -4.50278        1.71239
H          6.61119        2.27178       -0.57227
H          1.88804        6.23771       -1.63223
H          1.41068        4.63016       -2.25267
H          3.13913        5.15487       -2.30799
