21
COMP14_000000.log	Energy: -1085172.7741268
C         -1.50267        0.60543       -0.00041
C         -0.07064        0.45483       -0.00013
C          0.63140       -0.72507       -0.00041
H          0.16160       -1.70072       -0.00097
C          2.03027       -0.49312       -0.00025
S          3.43848       -1.50215       -0.00066
C          4.46838       -0.10392        0.00015
H          5.54183       -0.23745        0.00023
C          3.78781        1.07632        0.00041
H          4.26413        2.04822        0.00082
C          2.38261        0.84762        0.00027
S          0.98057        1.86345        0.00062
C         -2.29340        1.69095       -0.00111
C         -3.73595        1.39199       -0.00113
C         -4.04505        0.09416       -0.00040
H         -5.00954       -0.39320       -0.00030
S         -2.55342       -0.87226        0.00044
O         -2.39521       -1.59269       -1.25723
O         -2.39549       -1.59094        1.25914
H         -1.92202        2.70953       -0.00174
H         -4.47721        2.18296       -0.00174
