42
COMP72_130002.log	Energy: -1910971.7924248
C          0.24643       -1.49041        0.40757
C         -0.99176       -0.72771        0.49541
C         -1.27676        0.31037        1.33296
F         -0.43771        0.78059        2.23724
C         -2.58360        0.85039        1.18315
C         -3.06788        1.91485        1.99826
N         -3.44979        2.78182        2.66601
C         -3.30755        0.18786        0.20802
S         -2.36067       -1.06059       -0.51446
C         -4.66485        0.45764       -0.24172
S         -5.24307        2.07783       -0.41149
C         -6.78446        1.55627       -0.96529
H         -7.56506        2.26099       -1.21024
C         -6.84125        0.20153       -1.02208
F         -7.90529       -0.48971       -1.40813
C         -5.63948       -0.45087       -0.61430
C         -5.51511       -1.86999       -0.57120
N         -5.43085       -3.02576       -0.54524
C          1.53193       -1.03663        0.22155
C          1.92551        0.38121       -0.02415
O          1.11138        1.28656       -0.08424
C          3.37395        0.57910       -0.20069
C          3.95869        1.79901       -0.40565
O          3.32722        2.96413       -0.47798
C          4.08500        4.14155       -0.69776
S          5.70859        1.67364       -0.56395
C          5.62439       -0.07231       -0.34538
O          6.70811       -0.83919       -0.36029
C          7.97177       -0.22991       -0.56017
C          4.33978       -0.50317       -0.16529
C          3.95174       -1.90639        0.03766
O          4.73168       -2.84315        0.05500
C          2.48868       -2.10351        0.22184
C          1.91847       -3.33117        0.39364
H          2.43246       -4.28229        0.41838
S          0.22076       -3.21941        0.57702
H          3.36382        4.95749       -0.70848
H          4.60537        4.09789       -1.66212
H          4.80779        4.30095        0.11160
H          8.69965       -1.03935       -0.52696
H          8.19009        0.49204        0.23610
H          8.01869        0.26526       -1.53760
