41
COMP25_000330.log	Energy: -1045997.6743611
C          2.04914       -0.44328       -0.17663
C          0.60799       -0.74661       -0.32738
C         -0.33192        0.17660        0.13922
C         -1.67902       -0.13387        0.00254
N         -2.83540        0.58447        0.38734
C         -2.92426        1.82678        0.99650
O         -3.96387        2.37448        1.27907
O         -1.71499        2.34795        1.23407
C         -1.72759        3.63258        1.85932
C         -3.97105       -0.17869        0.02493
C         -5.32659        0.09453        0.19602
C         -6.23154       -0.85642       -0.26208
H         -7.29349       -0.66809       -0.13753
C         -5.81148       -2.04404       -0.87213
C         -4.45964       -2.30587       -1.03737
C         -3.53621       -1.36555       -0.58459
C         -2.08826       -1.33836       -0.59846
C         -1.14286       -2.24275       -1.07272
C          0.20241       -1.94630       -0.93333
C          2.58156        0.81573       -0.62064
N          1.87932        1.79870       -1.18807
S          2.93137        2.98917       -1.51502
N          4.30999        2.32614       -0.96971
C          3.98134        1.12133       -0.50018
C          4.88205        0.17980        0.06363
H          5.93694        0.40947        0.15046
C          4.36845       -1.01356        0.48688
C          5.25894       -1.98246        1.06379
N          6.00040       -2.74537        1.52187
C          2.95669       -1.32515        0.37555
C          2.51755       -2.58723        0.90247
N          2.19234       -3.60967        1.33982
H         -0.01292        1.09881        0.59882
H         -0.67894        3.89844        1.98700
H         -2.23152        3.58173        2.82653
H         -2.23531        4.36114        1.22396
H         -5.65732        1.00908        0.66634
H         -6.54827       -2.76337       -1.21506
H         -4.12302       -3.22530       -1.50691
H         -1.45472       -3.16924       -1.54391
H          0.94679       -2.64209       -1.30535
