50
COMP92_340000.log	Energy: -1546295.3101913
C         -0.71776        0.00805        0.11660
C          0.71483       -0.24885        0.35754
C          1.26872       -1.10318        1.28123
C          0.53623       -1.99517        2.11321
N         -0.00767       -2.74930        2.80781
C          2.69448       -1.04869        1.30360
O          3.48163       -1.78494        2.11724
C          3.21766       -0.14574        0.41040
S          1.93095        0.63947       -0.46681
C          4.61634        0.14338        0.17039
S          5.90707       -0.68253        1.00766
C          7.10966        0.19416        0.17317
H          8.15898        0.02231        0.36631
C          6.56862        1.08769       -0.71417
C          7.29194        1.97203       -1.56531
N          7.79830        2.72344       -2.29028
C          5.13672        1.05692       -0.71330
O          4.34733        1.83032       -1.48948
C         -1.17740        1.32769        0.35422
C         -2.50568        1.65317        0.24773
C         -2.93832        3.05386        0.51304
O         -2.14257        3.92551        0.79962
N         -4.30767        3.31082        0.41256
C         -4.78478        4.67047        0.66019
C         -5.28483        2.36521        0.09350
O         -6.45462        2.68599        0.02829
C         -4.82585        0.97352       -0.15906
C         -5.74396       -0.00421       -0.46527
H         -6.79526        0.25726       -0.51751
C         -5.31354       -1.32290       -0.70078
C         -3.97596       -1.64466       -0.64037
C         -3.56480       -3.05076       -0.88844
O         -4.37348       -3.93058       -1.10673
N         -2.19349       -3.30139       -0.86881
C         -1.72986       -4.65590       -1.16586
C         -1.19619       -2.34321       -0.68262
O         -0.03517       -2.64323       -0.87267
C         -1.62922       -0.97354       -0.26323
C         -3.00989       -0.65668       -0.33309
C         -3.45085        0.66059       -0.08127
H          2.94903       -2.42782        2.60606
H          4.88762        2.40654       -2.04834
H         -0.47329        2.09884        0.64922
H         -3.92599        5.28318        0.92359
H         -5.51223        4.66142        1.47379
H         -5.26993        5.06041       -0.23673
H         -6.02621       -2.10696       -0.93170
H         -2.59937       -5.30905       -1.17347
H         -1.01951       -4.96748       -0.39887
H         -1.23118       -4.67866       -2.13731
