35
COMP42_410003.log	Energy: -1577406.4253289
C          0.96889        1.09094       -0.28265
C         -0.24269        0.30998       -0.25183
C         -0.45900       -0.98782       -0.68224
O          0.40027       -1.87479       -1.17488
C         -1.84381       -1.32004       -0.62673
F         -2.27130       -2.52560       -1.00149
C         -2.67490       -0.34058       -0.16752
S         -1.74340        1.07020        0.24286
C         -4.10674       -0.41132        0.02499
S         -5.04177       -1.83672       -0.33654
C         -6.51213       -1.06881        0.15237
H         -7.44756       -1.60865        0.09934
C         -6.31082        0.21207        0.57216
O         -7.20771        1.11767        1.02369
C         -4.93429        0.57046        0.49220
F         -4.50916        1.78246        0.85388
C          2.30028        0.75015       -0.19098
C          3.09061       -0.46345        0.03198
O          2.73196       -1.62548        0.08978
N          4.43152       -0.03487        0.12205
C          5.55466       -0.89475        0.26675
O          6.58256       -0.74199       -0.33210
O          5.29019       -1.84192        1.15599
C          6.32001       -2.82292        1.31238
C          4.57612        1.38200       -0.06307
O          5.60692        1.99135       -0.01349
C          3.18935        1.85554       -0.25367
C          2.58103        3.05647       -0.39349
H          3.02067        4.04261       -0.44719
S          0.86904        2.83439       -0.48018
H          1.27672       -1.81180       -0.72590
H         -8.08780        0.72330        1.01675
H          5.92872       -3.53710        2.03485
H          7.23397       -2.35536        1.68458
H          6.52397       -3.31253        0.35771
