29
COMP22_320200.log	Energy: -2425181.8425559
C          2.15691        0.16180       -0.12047
C          0.73924       -0.15505        0.12603
C          0.25445       -0.94733        1.13925
C          1.09308       -1.52801        2.13705
N          1.79628       -1.98927        2.93391
C         -1.16418       -1.11156        1.06985
Cl        -2.05116       -2.02679        2.22752
C         -1.73314       -0.46082        0.01090
S         -0.52187        0.36301       -0.91969
C         -3.14307       -0.40880       -0.36752
S         -3.93588       -1.77497       -1.09221
C         -5.41912       -0.93728       -1.21080
H         -6.29708       -1.41135       -1.62701
C         -5.33022        0.34094       -0.72565
C         -6.42504        1.25706       -0.70739
N         -7.32058        1.99208       -0.69999
C         -4.01444        0.63767       -0.24155
Cl        -3.59589        2.16076        0.44312
C          3.02623       -0.89349       -0.54593
N          2.66262       -2.15467       -0.77469
S          4.01435       -2.94180       -1.21375
N          5.09766       -1.73339       -1.14396
C          4.42136       -0.64921       -0.76022
C          4.95896        0.65102       -0.56788
H          6.01291        0.83649       -0.73416
C          4.11672        1.64594       -0.17041
Cl         4.76586        3.23641        0.06558
C          2.71047        1.40512        0.06297
Cl         1.71869        2.71102        0.61644
