34
COMP29_000100.log	Energy: -1353647.4151521
C         -1.91629       -0.45173        0.00381
C         -0.46830       -0.26690        0.00479
C          0.22386        0.92949        0.01624
C          1.62025        0.74866        0.01311
C          1.98801       -0.57705       -0.00171
S          0.64631       -1.63628       -0.01076
C          3.43172       -0.65840       -0.00761
C          3.94787        0.61626        0.00442
C          2.83961        1.65718        0.01779
C          2.88295        2.53885       -1.24122
C          2.89213        2.52249        1.28713
C          5.36701        0.63216        0.00095
C          5.88650       -0.63273       -0.01353
H          6.92844       -0.92209       -0.02022
S          4.65949       -1.86159       -0.02361
C         -2.84812        0.65961       -0.00388
N         -2.52871        1.95080       -0.01162
S         -3.92076        2.79291       -0.02013
N         -4.98965        1.56710       -0.01334
C         -4.27922        0.44235       -0.00500
C         -4.83257       -0.86888        0.00205
H         -5.90130       -1.03799        0.00159
C         -3.94118       -1.88706        0.00915
F         -4.34185       -3.15652        0.01669
C         -2.52502       -1.68115        0.00983
F         -1.79998       -2.80489        0.01750
H         -0.27872        1.88642        0.02594
H          2.84396        1.92695       -2.14714
H          3.80471        3.13103       -1.26242
H          2.03374        3.23072       -1.25287
H          2.85398        1.89939        2.18545
H          2.04636        3.21822        1.31043
H          3.81674        3.10979        1.31181
H          5.98121        1.52540        0.00858
