30
COMP37_010000.log	Energy: -1260193.2267705
C         -3.05476        0.06171        0.01505
C         -1.62346       -0.17187        0.22173
C         -1.04148       -1.22148        0.88034
F         -1.74751       -2.17385        1.48699
C          0.37100       -1.21238        0.90854
H          0.95915       -1.95923        1.42624
C          0.88515       -0.12795        0.24371
S         -0.38171        0.87386       -0.39233
C          2.27298        0.24945        0.02804
C          3.31211       -0.59108        0.16625
C          4.70613       -0.20998        0.00494
C          5.26930        1.03963       -0.05579
H          4.72625        1.97083        0.04479
C          6.67304        0.97406       -0.23815
F          7.42125        2.07613       -0.32206
C          7.18451       -0.28552       -0.30783
H          8.21640       -0.57546       -0.43722
S          5.92160       -1.44477       -0.15294
C         -3.64439        1.30921        0.23688
F         -2.89614        2.33640        0.64566
C         -5.00346        1.51198        0.04253
F         -5.51586        2.72204        0.27105
C         -5.82399        0.47629       -0.37221
H         -6.88504        0.63444       -0.52006
C         -5.25396       -0.76496       -0.59767
F         -6.01108       -1.78306       -1.00874
C         -3.89234       -0.97086       -0.41778
F         -3.38944       -2.17506       -0.68073
H          2.45401        1.27923       -0.27299
H          3.12159       -1.63623        0.40247
