56
COMP82_000003.log	Energy: -1527681.4355925
C         -1.98413        0.24774       -0.13261
C         -3.44910        0.22684       -0.19343
C         -4.28239        1.15036       -0.77004
H         -3.91903        2.03191       -1.28541
C         -5.65754        0.82859       -0.64345
H         -6.45922        1.45187       -1.02364
C         -5.87878       -0.34594        0.02880
S         -4.37389       -1.07011        0.50620
C         -7.14575       -0.98546        0.34934
S         -8.55632       -0.70346       -0.62841
C         -9.51949       -1.72950        0.36604
H        -10.56690       -1.87604        0.14130
C         -8.79347       -2.27208        1.38394
H         -9.20970       -2.94752        2.12180
C         -7.43517       -1.84619        1.37643
H         -6.70282       -2.14821        2.11680
C         -1.23854       -0.92949        0.00689
C          0.14718       -0.90788        0.03890
C          0.83034        0.30484       -0.08572
C          2.24226        0.67840        0.01038
C          2.26724        2.18604       -0.06714
O          3.22606        2.91449       -0.10783
N          0.92238        2.60952       -0.20000
C          0.47147        3.92552       -0.36537
O         -0.67299        4.20497       -0.63925
O          1.43945        4.81054       -0.17316
C          1.05095        6.17349       -0.35183
C          0.06510        1.48281       -0.19421
C         -1.31651        1.47797       -0.21685
C          3.38618       -0.06454        0.09291
C          3.42286       -1.51988       -0.30412
O          2.53090       -2.18854       -0.76326
N          4.76034       -1.95195       -0.14498
C          5.26696       -3.22692       -0.42843
O          6.44743       -3.48861       -0.42146
O          4.30153       -4.09938       -0.68494
C          4.75253       -5.41752       -0.99935
C          5.55498       -0.88095        0.33333
C          6.89653       -0.90814        0.68249
C          7.45301        0.25593        1.20715
H          8.50382        0.25810        1.48068
C          6.68425        1.40118        1.39044
C          5.34231        1.41775        1.02972
C          4.76099        0.27458        0.47338
H         -1.74622       -1.88740        0.06706
H          0.69157       -1.83409        0.13223
H          1.96460        6.74766       -0.20670
H          0.29597        6.45621        0.38525
H          0.65114        6.33011       -1.35597
H         -1.86284        2.40695       -0.28006
H          3.84678       -5.97967       -1.22149
H          5.27931       -5.85485       -0.14810
H          5.41810       -5.40005       -1.86510
H          7.48350       -1.80440        0.54943
H          7.13190        2.29488        1.81287
H          4.75989        2.31556        1.16293
