32
COMP62_340001.log	Energy: -1210535.9242780
C         -2.31829       -0.62490       -0.25715
C         -1.00244       -0.03326       -0.26617
C         -0.68683        1.29930       -0.43715
C         -1.57803        2.35436       -0.78243
N         -2.18972        3.28271       -1.11389
C          0.71714        1.54157       -0.36534
O          1.29594        2.75016       -0.51212
C          1.46058        0.40434       -0.14937
S          0.41646       -0.98500       -0.02301
C          2.89919        0.30963       -0.02601
S          3.94843        1.70354       -0.11214
C          5.34690        0.75428        0.11899
H          6.32774        1.20755        0.14289
C          5.04871       -0.57624        0.25749
C          5.98217       -1.63294        0.46166
N          6.66898       -2.55303        0.62939
C          3.64192       -0.82913        0.17400
O          3.06847       -2.04628        0.27686
C         -3.49658       -0.12615        0.21858
C         -4.05428        0.97163        1.01207
O         -3.58036        1.99007        1.46551
N         -5.40274        0.55736        1.18975
H         -6.07022        1.12139        1.69256
C         -5.65358       -0.67192        0.62177
H         -6.62651       -1.13611        0.71005
C         -4.51877       -1.11549        0.02160
C         -3.92463       -2.28099       -0.63649
O         -4.37834       -3.32839       -1.03780
N         -2.55457       -1.90844       -0.73485
H         -1.90997       -2.43712       -1.30450
H          0.61996        3.43267       -0.63585
H          3.74226       -2.72437        0.42855
