50
COMP82_100000.log	Energy: -1415612.5963579
C         -1.03816        0.52268       -0.19074
C         -2.49844        0.64827       -0.20799
C         -3.28076        1.73728       -0.48925
F         -2.78488        2.93708       -0.81672
C         -4.67842        1.53054       -0.41555
H         -5.40782        2.31143       -0.59221
C         -4.97989        0.24156       -0.06849
S         -3.53888       -0.70035        0.15506
C         -6.29077       -0.36096        0.11352
S         -7.66723        0.23516       -0.76710
C         -8.71945       -0.91285       -0.02707
H         -9.77435       -0.94852       -0.25437
C         -8.02162       -1.70710        0.82783
F         -8.57649       -2.68878        1.54083
C         -6.63727       -1.40873        0.92378
H         -5.95466       -1.93312        1.58113
C         -0.42436       -0.72887       -0.32055
C          0.95885       -0.87679       -0.29746
C          1.77723        0.24350       -0.15396
C          3.22803        0.47889       -0.02602
C          3.35455        1.98118        0.18003
O          4.35069        2.67039        0.29616
N          2.08021        2.49716        0.16446
C          1.78706        3.90115        0.30914
C          1.13796        1.49321       -0.01345
C         -0.23181        1.66124       -0.02975
C          4.30255       -0.35947       -0.07731
C          4.20034       -1.80942       -0.52749
O          3.23329       -2.43582       -0.92120
N          5.46671       -2.33758       -0.46800
C          5.78281       -3.69458       -0.83637
C          6.38029       -1.39549       -0.01007
C          7.73070       -1.60056        0.21048
C          8.47571       -0.52916        0.70328
H          9.53861       -0.65807        0.88441
C          7.86691        0.69308        0.96585
C          6.50444        0.88469        0.73464
C          5.73473       -0.16358        0.22816
H         -1.03268       -1.61677       -0.46488
H          1.39741       -1.85503       -0.41463
H          2.73809        4.42494        0.40918
H          1.17675        4.07893        1.20112
H          1.25394        4.27572       -0.57090
H         -0.67198        2.64225        0.09354
H          4.86022       -4.16715       -1.17461
H          6.18220       -4.24491        0.02244
H          6.51965       -3.71130       -1.64636
H          8.19199       -2.56255        0.01301
H          8.45621        1.51797        1.35316
H          6.04902        1.84256        0.92954
