35
COMP27_030400.log	Energy: -1414562.1413464
C          2.90864       -0.20010       -0.15171
C          1.48612       -0.44150        0.10382
C          0.91974       -1.45978        0.84649
C          1.68378       -2.42898        1.56672
N          2.29262       -3.21160        2.16732
C         -0.50210       -1.41171        0.88662
H         -1.10202       -2.10701        1.46089
C         -1.01808       -0.36657        0.16764
S          0.25357        0.57805       -0.54271
C         -2.41000        0.00782       -0.03561
C         -3.44270       -0.83866        0.10909
C         -4.83991       -0.44726       -0.01948
C         -5.40459        0.79795        0.05884
H         -4.85069        1.70242        0.27777
C         -6.81756        0.77596       -0.14426
C         -7.64497        1.94216       -0.11214
N         -8.30962        2.89147       -0.08657
C         -7.30896       -0.48637       -0.36120
H         -8.33787       -0.76939       -0.53237
S         -6.05781       -1.65304       -0.32776
C          3.50602        1.09009        0.06056
N          2.86949        2.18426        0.46197
S          3.98817        3.36934        0.55909
N          5.31603        2.53935        0.09877
C          4.91730        1.29698       -0.14855
C          5.75029        0.22295       -0.58007
H          6.81248        0.38461       -0.73090
C          5.15786       -0.97958       -0.79254
O          5.79416       -2.10496       -1.21207
C          3.73790       -1.20021       -0.59638
O          3.25455       -2.41732       -0.88297
H         -2.60094        1.03824       -0.32882
H         -3.24660       -1.88664        0.32605
H          6.74317       -1.94920       -1.28848
H          3.99777       -3.00773       -1.07916
