44
COMP94_100002.log	Energy: -1506423.6186149
C         -0.31169       -0.32018       -0.11621
C         -1.75207       -0.60705       -0.07927
C         -2.69754       -0.03228        0.71721
F         -2.44771        0.96715        1.55767
C         -3.98567       -0.60594        0.57964
S         -5.54599       -0.33066        1.27413
C         -6.22042       -1.61418        0.31069
H         -7.26821       -1.86669        0.38257
C         -5.29129       -2.20320       -0.48517
F         -5.53914       -3.20981       -1.31988
C         -3.99507       -1.63511       -0.33863
S         -2.43979       -1.90866       -1.03670
C          0.56336       -1.42893        0.02967
C          1.92158       -1.27164        0.09445
C          2.77972       -2.47813        0.25529
O          2.34863       -3.60800        0.28094
N          4.14910       -2.21242        0.36492
O          4.94625       -3.28774        0.64740
C          5.42891       -3.89545       -0.55239
C          4.79435       -0.96961        0.31072
O          5.99876       -0.88128        0.37868
C          3.89038        0.20265        0.15344
C          4.43515        1.46589        0.12008
H          5.50982        1.57990        0.21002
C          3.59627        2.58431       -0.01873
C          2.23339        2.42686       -0.13972
C          1.39506        3.64486       -0.27913
O          1.82995        4.77273       -0.22481
N          0.03947        3.38701       -0.48317
O         -0.72024        4.47186       -0.82757
C         -1.38887        4.99911        0.31883
C         -0.61176        2.14538       -0.56826
O         -1.77482        2.09861       -0.88993
C          0.23420        0.95689       -0.23411
C          1.64207        1.13804       -0.11680
C          2.49224        0.02039        0.04371
H          0.15302       -2.42986        0.11899
H          6.04783       -4.72493       -0.20937
H          6.03834       -3.18883       -1.12335
H          4.59661       -4.27538       -1.15208
H          4.00500        3.58885       -0.03283
H         -1.96013        5.84629       -0.06163
H         -0.66255        5.34225        1.06172
H         -2.06757        4.25388        0.74509
