33
COMP41_200012.log	Energy: -1911996.7847837
C         -1.99338       -0.94171        0.44031
C         -0.56395       -0.68030        0.30897
C          0.41308       -1.48842       -0.18413
Cl         0.14093       -3.06383       -0.84871
C          1.73296       -0.91339       -0.14740
C          2.93697       -1.46838       -0.57976
H          2.96329       -2.46305       -1.01243
C          4.08328       -0.70339       -0.43628
S          5.70932       -1.16551       -0.89426
C          6.33564        0.35997       -0.33996
H          7.39242        0.57443       -0.41795
C          5.37772        1.16920        0.15892
Cl         5.68597        2.75367        0.78883
C          4.05154        0.59855        0.12569
C          2.84819        1.15400        0.55358
H          2.82013        2.15118        0.98040
C          1.70034        0.38759        0.41173
S          0.08108        0.85292        0.86426
C         -3.05529       -0.15793        0.08780
C         -3.27305        1.14374       -0.60133
O         -2.50000        1.94794       -1.05332
N         -4.67572        1.26960       -0.60418
O         -5.29692        2.26421       -1.29048
C         -5.56852        3.37612       -0.43370
C         -5.39491        0.19840       -0.04235
O         -6.59339        0.11635        0.03227
C         -4.31875       -0.71700        0.41594
C         -4.24188       -1.92389        1.03087
H         -5.04270       -2.56616        1.37079
S         -2.59170       -2.39215        1.21384
H         -6.05858        4.10800       -1.07648
H         -4.63730        3.79079       -0.03601
H         -6.24143        3.07935        0.37642
