52
COMP97_110002.log	Energy: -1728038.2610962
C          1.15018        0.04083        0.07535
C         -0.29120        0.24171        0.26677
C         -0.92327        1.02852        1.18366
F         -0.30284        1.82855        2.03933
C         -2.33314        0.91343        1.16163
F         -3.09776        1.61539        1.99881
C         -2.80832        0.02668        0.23254
S         -1.46778       -0.67105       -0.62810
C         -4.16459       -0.36091       -0.10280
C         -5.26958        0.13824        0.48399
C         -6.62763       -0.25035        0.15486
C         -7.10215       -1.14841       -0.76251
F         -6.33630       -1.87807       -1.57598
C         -8.51891       -1.25328       -0.79023
F         -9.13956       -2.08074       -1.62600
C         -9.13411       -0.43790        0.10438
H        -10.19414       -0.32955        0.27760
S         -7.97225        0.47207        0.99447
C          1.61000       -1.30247        0.07924
C          2.94011       -1.60965       -0.01885
C          3.35151       -3.04099       -0.00134
O          2.57150       -3.96060        0.09352
N          4.73126       -3.25465       -0.09041
O          5.12777       -4.55841       -0.21087
C          5.38688       -5.13428        1.07101
C          5.75034       -2.29532       -0.15730
O          6.91622       -2.61553       -0.18970
C          5.28463       -0.88128       -0.17000
C          6.21724        0.12757       -0.24447
H          7.26997       -0.12883       -0.29096
C          5.79560        1.46753       -0.26088
C          4.45568        1.78123       -0.20461
C          4.06995        3.21526       -0.22779
O          4.86571        4.12613       -0.28221
N          2.69462        3.43915       -0.20947
O          2.29913        4.74815       -0.17466
C          2.17423        5.28657       -1.49311
C          1.65519        2.49471       -0.23189
O          0.51700        2.85992       -0.40729
C          2.07995        1.07049       -0.06137
C          3.46982        0.76481       -0.12460
C          3.90424       -0.58015       -0.10546
H         -4.26451       -1.10982       -0.88211
H         -5.16811        0.88762        1.26281
H          0.89736       -2.11419        0.18572
H          5.67399       -6.16385        0.85583
H          4.48271       -5.12282        1.68686
H          6.21150       -4.61374        1.56683
H          6.51490        2.27735       -0.31638
H          1.86712        6.32093       -1.33657
H          1.40476        4.75002       -2.05499
H          3.13749        5.26030       -2.01059
