29
COMP48_000000.log	Energy: -1036961.3837092
C          0.21894       -0.45140        0.00008
C         -0.96882        0.37369       -0.00864
C         -2.27307       -0.06443       -0.01263
O         -2.62753       -1.37243        0.00145
C         -3.99652       -1.57612       -0.34508
C         -4.88180       -0.57678        0.37953
O         -4.57489        0.75136       -0.02469
C         -3.23506        0.98837       -0.01828
C         -2.65295        2.21789       -0.02918
H         -3.15359        3.17525       -0.03354
S         -0.93310        2.12105       -0.02598
C          1.55045       -0.11557        0.00069
C          2.37306        1.11461       -0.00403
O          2.04546        2.28105       -0.01290
N          3.70382        0.66571        0.00243
C          4.84481        1.55388        0.00940
C          3.82914       -0.72803        0.01511
O          4.87879       -1.32788        0.02536
C          2.43218       -1.22801        0.01175
C          1.80888       -2.42882        0.02043
H          2.24066       -3.42005        0.03100
S          0.09346       -2.20861        0.01426
H         -4.23425       -2.59986       -0.05188
H         -4.11773       -1.46961       -1.43002
H         -4.74716       -0.67828        1.46454
H         -5.93212       -0.74008        0.13153
H          4.47509        2.56805       -0.14579
H          5.53543        1.27714       -0.79039
H          5.37106        1.49607        0.96632
