54
COMP97_030002.log	Energy: -1594760.0394972
C          1.04286       -0.10955        0.09348
C         -0.40673       -0.05678        0.38505
C         -0.99136        0.19868        1.60317
C         -0.22196        0.52935        2.76064
N          0.42021        0.79323        3.68899
C         -2.41393        0.14269        1.56917
H         -3.03643        0.35957        2.42837
C         -2.90169       -0.17564        0.33054
S         -1.59981       -0.39370       -0.80385
C         -4.28135       -0.33833       -0.10510
C         -5.30785       -0.57248        0.72842
C         -6.69890       -0.65360        0.30445
C         -7.28426       -0.19854       -0.84715
H         -6.75753        0.34480       -1.62189
C         -8.68118       -0.48627       -0.90570
C         -9.52444       -0.11651       -2.00006
N        -10.20112        0.18497       -2.89150
C         -9.13927       -1.14494        0.20730
H        -10.15119       -1.46646        0.40936
S         -7.87786       -1.42461        1.32775
C          1.62996       -1.38979       -0.03630
C          2.98087       -1.53698       -0.22458
C          3.54719       -2.90840       -0.35453
O          2.87798       -3.91442       -0.30361
N          4.93442       -2.95589       -0.52982
O          5.46226       -4.19236       -0.78231
C          5.86468       -4.83418        0.42985
C          5.83720       -1.88481       -0.57059
O          7.02631       -2.06581       -0.69495
C          5.21984       -0.53662       -0.43586
C          6.02799        0.57584       -0.46899
H          7.09760        0.44490       -0.59149
C          5.46403        1.85854       -0.34458
C          4.10502        2.01233       -0.19258
C          3.55633        3.38750       -0.06368
O          4.23628        4.38771       -0.09280
N          2.16753        3.44775        0.06844
O          1.63334        4.69265        0.25541
C          1.35896        5.32806       -0.99571
C          1.24463        2.39428        0.03969
O          0.05730        2.62021        0.01521
C          1.84289        1.02287        0.00899
C          3.24678        0.88428       -0.15543
C          3.82002       -0.40183       -0.27412
H         -4.46733       -0.26328       -1.17444
H         -5.11153       -0.72027        1.78834
H          1.00867       -2.27741        0.02670
H          6.26376       -5.79680        0.10924
H          5.00424       -4.98798        1.08754
H          6.64703       -4.25575        0.92984
H          6.08798        2.74563       -0.36346
H          0.91251        6.28480       -0.72406
H          0.64590        4.73772       -1.57823
H          2.28619        5.49402       -1.55162
