39
COMP47_440002.log	Energy: -1524695.1029756
C          2.41127        0.89509       -0.38711
C          1.08657        0.33244       -0.33298
C          0.67326       -0.96455       -0.56484
O          1.38076       -2.06186       -0.86752
C         -0.74598       -1.11417       -0.53746
O         -1.31559       -2.31946       -0.74534
C         -1.42764        0.04747       -0.28298
S         -0.30261        1.36159       -0.05756
C         -2.84921        0.28492       -0.13969
C         -3.81222       -0.64307       -0.33391
C         -5.22657       -0.39409       -0.12519
C         -5.82085        0.46967        0.75855
O         -5.22061        1.29598        1.66184
C         -7.24904        0.44436        0.72615
O         -8.00541        1.22418        1.53289
C         -7.73094       -0.44490       -0.18435
H         -8.76635       -0.65385       -0.40855
S         -6.45201       -1.27240       -1.00173
C          3.65534        0.34370       -0.18752
C          4.21237       -0.94986        0.22704
O          3.67862       -2.02764        0.44017
N          5.57654       -0.71445        0.36792
O          6.45857       -1.72916        0.56128
C          6.76123       -1.87656        1.95200
C          6.00543        0.58871        0.01476
O          7.14418        0.97250        0.03224
C          4.73139        1.27116       -0.31417
C          4.34492        2.53183       -0.61469
H          4.94928        3.41858       -0.74590
S          2.62293        2.59627       -0.77772
H          2.24072       -2.09804       -0.37595
H         -0.58763       -2.95041       -0.86936
H         -3.13619        1.30808        0.09828
H         -3.52728       -1.64013       -0.65804
H         -4.33284        0.95974        1.85180
H         -7.40112        1.71588        2.10708
H          7.48004       -2.69518        1.99309
H          5.85965       -2.13903        2.51368
H          7.21292       -0.96091        2.34450
