34
COMP67_400001.log	Energy: -1143373.7291340
C         -2.85682       -0.49221        0.04389
C         -1.55479        0.10569       -0.03549
C         -1.30882        1.45051       -0.18692
H         -2.10908        2.18409       -0.26176
C          0.07501        1.73669       -0.22963
O          0.61629        2.97179       -0.36401
C          0.88570        0.62278       -0.11824
S         -0.08111       -0.81000        0.05688
C          2.33031        0.63360       -0.14130
C          3.13417       -0.45002       -0.09113
C          4.58236       -0.39824       -0.03677
C          5.38389        0.56025        0.54725
O          4.96269        1.65983        1.21530
C          6.77823        0.28743        0.43391
H          7.54064        0.94154        0.83767
C          7.02004       -0.87893       -0.22329
H          7.98016       -1.32126       -0.44990
S          5.56990       -1.66962       -0.71041
C         -4.08538        0.11995       -0.01225
C         -4.71888        1.41799       -0.15404
O         -4.28400        2.55261       -0.28722
N         -6.09554        1.09172       -0.10362
H         -6.81231        1.79623       -0.17988
C         -6.31169       -0.26453        0.05158
H         -7.31388       -0.66624        0.10721
C         -5.10437       -0.88150        0.11105
C         -4.45653       -2.18825        0.25174
O         -4.87843       -3.31462        0.38308
N         -3.07594       -1.85160        0.19958
H         -2.36225       -2.56128        0.27017
H         -0.09137        3.62292       -0.43753
H          2.76090        1.62626       -0.25789
H          2.68448       -1.44336       -0.07789
H          4.01547        1.57003        1.39500
