52
COMP97_010002.log	Energy: -1603539.8252872
C          0.93405       -0.16068        0.34391
C         -0.51981       -0.27636        0.55428
C         -1.13571       -0.97394        1.55464
F         -0.45429       -1.55447        2.54572
C         -2.54640       -1.02519        1.48415
H         -3.16337       -1.50335        2.23393
C         -3.01836       -0.37512        0.37220
S         -1.71614        0.31041       -0.55116
C         -4.38556       -0.21728       -0.09714
C         -5.42390       -0.94622        0.34557
C         -6.80148       -0.76342       -0.08193
C         -7.37424        0.27368       -0.77395
H         -6.85545        1.17029       -1.08871
C         -8.75356        0.04929       -1.00903
F         -9.50605        0.93543       -1.66485
C         -9.23849       -1.12023       -0.50850
H        -10.24897       -1.49663       -0.56197
S         -7.97962       -1.99248        0.27661
C          1.62936       -1.38617        0.17346
C          2.97183       -1.42151       -0.09482
C          3.63705       -2.74119       -0.27713
O          3.06764       -3.80158       -0.15966
N          5.00007       -2.67132       -0.58925
O          5.60484       -3.86036       -0.89343
C          6.18543       -4.45094        0.27101
C          5.79856       -1.52787       -0.72025
O          6.98134       -1.60892       -0.96120
C          5.08538       -0.23589       -0.52532
C          5.78929        0.94037       -0.64573
H          6.84740        0.89894       -0.88009
C          5.13344        2.16922       -0.46406
C          3.79102        2.20713       -0.15790
C          3.15164        3.53291        0.03820
O          3.72682        4.58785       -0.10741
N          1.80852        3.47440        0.41165
O          1.25169        4.66257        0.80093
C          0.58800        5.29446       -0.29402
C          1.00007        2.34099        0.60041
O         -0.13292        2.46730        1.00059
C          1.64680        1.03256        0.27648
C          3.03808        1.01272       -0.02812
C          3.70404       -0.21874       -0.22062
H         -4.55059        0.53853       -0.86225
H         -5.24491       -1.74086        1.06742
H          1.08444       -2.32137        0.24145
H          6.63366       -5.37790       -0.08757
H          5.41458       -4.67341        1.01463
H          6.96001       -3.79925        0.68564
H          5.66880        3.10772       -0.55860
H          0.17580        6.21171        0.12743
H         -0.22238        4.66221       -0.66938
H          1.30173        5.53598       -1.08715
