42
COMP77_120000.log	Energy: -2326247.2291991
C          1.77124        1.48197        0.40241
C          0.43918        0.92103        0.60528
C          0.02362        0.03819        1.56437
Cl         1.01893       -0.62635        2.79892
C         -1.35557       -0.27499        1.45678
F         -1.94416       -1.11644        2.30620
C         -2.01303        0.36127        0.43760
S         -0.88569        1.36754       -0.42007
C         -3.40237        0.30432        0.02290
C         -4.33741       -0.48922        0.57917
C         -5.72849       -0.54554        0.16875
C         -6.40887        0.15406       -0.79243
F         -5.85242        1.08141       -1.57150
C         -7.78576       -0.18373       -0.90470
Cl        -8.83725        0.56962       -2.04765
C         -8.15624       -1.14976       -0.02005
H         -9.13589       -1.58732        0.10438
S         -6.82645       -1.64765        0.94930
C          2.94853        0.85008        0.07707
C          3.10605       -0.59950       -0.22659
O          2.16817       -1.37978       -0.22332
C          4.48841       -1.01327       -0.54664
C          4.84900       -2.30846       -0.81981
C          3.99772       -3.53875       -0.85817
S          6.54726       -2.39082       -1.14100
C          6.78864       -0.69366       -0.91454
C          8.14297       -0.07533       -1.06671
C          5.59707       -0.09248       -0.60006
C          5.43719        1.34971       -0.34345
O          6.35352        2.15519       -0.39899
C          4.05149        1.76234       -0.00601
C          3.69475        3.05543        0.24462
H          4.34856        3.91690        0.23239
S          2.02652        3.18989        0.59959
H         -3.67771        0.95967       -0.79728
H         -4.05980       -1.14854        1.39534
H          3.48720       -3.67627        0.09894
H          4.59282       -4.42964       -1.07613
H          3.21745       -3.43835       -1.61775
H          8.89983       -0.82541       -1.31029
H          8.43202        0.43638       -0.14458
H          8.12760        0.68323       -1.85423
