54
COMP91_200031.log	Energy: -2197374.3296509
C         -1.85606       -0.14025       -0.19241
C         -0.37582       -0.11674       -0.17037
C          0.42486        0.96832       -0.26375
Cl        -0.23084        2.56992       -0.23632
C          1.83893        0.65373       -0.26100
C          2.95741        1.49265       -0.30950
C          2.86858        2.95114       -0.65373
O          2.40361        3.37312       -1.68182
O          3.44091        3.71016        0.28767
C          3.48495        5.11006       -0.00271
C          4.21718        0.91050       -0.17982
S          5.73465        1.78398       -0.21160
C          6.62009        0.29890       -0.14386
H          7.70085        0.30718       -0.17652
C          5.83269       -0.79546       -0.06436
Cl         6.51077       -2.38821       -0.10537
C          4.41460       -0.48832       -0.04995
C          3.29277       -1.32751        0.00664
C          3.37924       -2.77750        0.37645
O          3.94906       -3.19733        1.35072
O          2.67007       -3.53744       -0.46968
C          2.60099       -4.92543       -0.13191
C          2.03389       -0.74469       -0.12796
S          0.51366       -1.61179       -0.10713
C         -2.47301       -0.28270       -1.45737
C         -3.83851       -0.31290       -1.58169
C         -4.44764       -0.47137       -2.93088
O         -3.80379       -0.58464       -3.95143
N         -5.83679       -0.48499       -2.95155
H         -6.26356       -0.59232       -3.86471
C         -6.71650       -0.37484       -1.88129
O         -7.91648       -0.40738       -2.05224
C         -6.07676       -0.21771       -0.54651
C         -6.86686       -0.09696        0.57269
H         -7.94539       -0.11821        0.45858
C         -6.27324        0.05280        1.83867
C         -4.90352        0.07533        1.96850
C         -4.31203        0.23784        3.32157
O         -4.96527        0.35788        4.33647
N         -2.92664        0.24001        3.35358
H         -2.50438        0.33909        4.26983
C         -2.02764        0.10658        2.30132
O         -0.83631        0.10287        2.52150
C         -2.64190       -0.03280        0.94547
C         -4.06057       -0.04968        0.83275
C         -4.66344       -0.19513       -0.43787
H          3.99075        5.56703        0.84637
H          2.47227        5.50580       -0.10798
H          4.03831        5.28979       -0.92726
H          1.98537       -5.38170       -0.90565
H          2.14526       -5.05576        0.85233
H          3.60163       -5.36284       -0.12614
H         -1.85919       -0.36499       -2.34858
H         -6.88040        0.15246        2.73204
