48
COMP91_100010.log	Energy: -1508530.0417164
C         -0.69852       -0.15156        0.05461
C          0.77888       -0.15947        0.10887
C          1.62691       -0.39680       -0.91066
F          1.22958       -0.59852       -2.17041
C          3.02096       -0.40103       -0.56539
C          4.11889       -0.60440       -1.39807
H          3.98189       -0.78363       -2.45903
C          5.37568       -0.56510       -0.81195
S          6.92089       -0.78555       -1.61105
C          7.77553       -0.56577       -0.10455
H          8.85398       -0.61704       -0.06524
C          6.93477       -0.34107        0.92312
F          7.32141       -0.14017        2.18558
C          5.53938       -0.32965        0.57443
C          4.43985       -0.12547        1.40699
H          4.57664        0.05533        2.46771
C          3.18484       -0.16209        0.82051
S          1.64237        0.05441        1.62272
C         -1.33870       -1.41445        0.08709
C         -2.70633       -1.52524        0.06791
C         -3.33320       -2.87543        0.10205
O         -2.66791       -3.89069        0.14131
N         -4.73024       -2.91340        0.08532
C         -5.39379       -4.21549        0.11838
C         -5.56752       -1.79620        0.06631
O         -6.77510       -1.93020        0.08040
C         -4.91527       -0.46050        0.02438
C         -5.68910        0.67687       -0.01255
H         -6.76920        0.57785       -0.01149
C         -5.07653        1.94246       -0.05142
C         -3.70382        2.05666       -0.05136
C         -3.09649        3.41185       -0.09425
O         -3.77348        4.42084       -0.12108
N         -1.70342        3.46152       -0.10521
C         -1.05495        4.77020       -0.17461
C         -0.84530        2.35728       -0.09734
O          0.35328        2.53414       -0.16763
C         -1.46955        1.00274       -0.00372
C         -2.88487        0.90312       -0.01171
C         -3.50611       -0.36415        0.02708
H         -0.73718       -2.31624        0.13036
H         -4.63012       -4.98270        0.01607
H         -6.11479       -4.27584       -0.69797
H         -5.92622       -4.33819        1.06428
H         -5.67174        2.84860       -0.08065
H         -1.82744        5.52915       -0.07784
H         -0.53594        4.87889       -1.12946
H         -0.32386        4.85703        0.63037
