52
COMP61_400023.log	Energy: -1572221.7992561
C         -1.66084        0.93185        0.09165
C         -0.30933        0.49759       -0.03641
C          0.22032       -0.71547        0.38649
O         -0.41628       -1.71689        0.97085
C          1.65563       -0.78120        0.21057
C          2.54696       -1.81160        0.54824
O          2.17735       -2.97408        1.14616
C          1.59061       -3.93553        0.27288
C          3.89608       -1.60090        0.28528
S          5.15606       -2.75776        0.63476
C          6.34999       -1.66894       -0.02375
H          7.39205       -1.96168       -0.03881
C          5.83170       -0.49960       -0.47207
O          6.51003        0.53648       -1.02658
C          4.39656       -0.41735       -0.30610
C          3.50369        0.60604       -0.65050
O          3.88213        1.76863       -1.25395
C          4.40664        2.74529       -0.35896
C          2.15883        0.40004       -0.37864
S          0.91160        1.55490       -0.75584
C         -2.84022        0.21637        0.08425
C         -3.32585       -1.11877       -0.10809
O         -2.72867       -2.19135       -0.16190
N         -4.74534       -0.94600       -0.20371
C         -5.74972       -1.91554       -0.37140
O         -6.91714       -1.61764       -0.44752
O         -5.24930       -3.13781       -0.43242
C         -6.21840       -4.17489       -0.60911
C         -5.08807        0.41337       -0.11872
H         -6.12052        0.70604       -0.23230
C         -3.95446        1.11569        0.07203
C         -3.44573        2.48515        0.13194
O         -3.98955        3.55312        0.23223
N         -2.00756        2.29570        0.11160
C         -1.17377        3.31116        0.67294
O         -0.53092        3.16637        1.67786
O         -1.24662        4.40342       -0.06820
C         -0.55441        5.53742        0.46132
H         -1.32122       -1.88544        0.58412
H          1.38318       -4.81193        0.88764
H          2.29013       -4.20343       -0.52801
H          0.65575       -3.55954       -0.15139
H          7.44670        0.30927       -1.06946
H          4.60768        3.63164       -0.96230
H          5.33802        2.39486        0.09595
H          3.67496        2.98792        0.42133
H         -5.64685       -5.10141       -0.60627
H         -6.74119       -4.04674       -1.55941
H         -6.94281       -4.16390        0.20787
H         -0.71691        6.33549       -0.26089
H          0.51004        5.31509        0.56318
H         -0.96662        5.80843        1.43564
