48
COMP67_440003.log	Energy: -1523645.1128168
C         -1.89997        0.70856        0.21155
C         -0.66577        0.02909        0.41978
C         -0.47579       -1.19069        1.05820
O         -1.35236       -1.99274        1.66393
C          0.89701       -1.56217        1.12755
O          1.28899       -2.70554        1.72369
C          1.74882       -0.67340        0.52432
S          0.86485        0.66433       -0.15363
C          3.18117       -0.82980        0.41640
C          4.03094        0.07606       -0.11155
C          5.45539       -0.12719       -0.27737
C          6.13403       -1.30421       -0.46707
O          5.63188       -2.56522       -0.55710
C          7.54531       -1.14088       -0.62424
O          8.37672       -2.18772       -0.82793
C          7.92750        0.16343       -0.55585
H          8.92953        0.55695       -0.64012
S          6.57419        1.21148       -0.31139
C         -3.17135        0.19314        0.06610
C         -3.85781       -1.06337       -0.03444
O         -3.47691       -2.21382        0.17061
N         -5.18252       -0.68653       -0.42865
C         -6.31218       -1.49673       -0.64845
O         -7.37864       -1.02819       -0.96443
O         -6.04206       -2.77771       -0.46870
C         -7.14989       -3.66129       -0.66693
C         -5.27654        0.70408       -0.59697
H         -6.20263        1.13356       -0.94678
C         -4.08025        1.24093       -0.28807
C         -3.34622        2.50414       -0.32119
O         -3.69373        3.64266       -0.48572
N         -1.98254        2.09227       -0.02532
C         -1.06932        3.04203        0.52253
O         -0.57370        2.93886        1.61276
O         -0.88231        4.02547       -0.34054
C         -0.09134        5.11359        0.14797
H         -2.18946       -2.11436        1.12776
H          0.48337       -3.13816        2.04957
H          3.56241       -1.74854        0.85738
H          3.63876        1.03459       -0.45210
H          4.68705       -2.52027       -0.76245
H          7.83241       -2.98670       -0.87264
H         -6.74212       -4.66074       -0.52647
H         -7.55603       -3.54471       -1.67376
H         -7.93295       -3.45689        0.06648
H         -0.07656        5.84317       -0.65953
H          0.91865        4.76928        0.38061
H         -0.54725        5.53965        1.04408
