52
COMP82_040000.log	Energy: -1385476.0762104
C          1.04950        0.42690        0.20062
C          2.51170        0.51837        0.24870
C          3.26936        1.55632        0.72323
H          2.84774        2.45394        1.16461
C          4.66258        1.30855        0.62710
O          5.63744        2.16530        1.03657
C          4.97927        0.08601        0.07876
S          3.51565       -0.77026       -0.33091
C          6.29802       -0.46528       -0.15631
S          7.76679        0.39735        0.23268
C          8.74769       -0.89604       -0.33267
H          9.82511       -0.81689       -0.29039
C          8.00939       -1.94166       -0.79717
H          8.43275       -2.85681       -1.19773
C          6.61124       -1.69233       -0.69536
O          5.63451       -2.55781       -1.08047
C          0.39256       -0.80580        0.28492
C         -0.99558       -0.90158        0.25639
C         -1.77283        0.25256        0.15388
C         -3.21320        0.54055        0.03075
C         -3.28902        2.04905       -0.15117
O         -4.26060        2.77298       -0.26586
N         -1.99830        2.52239       -0.11218
C         -1.65821        3.91711       -0.23495
C         -1.09037        1.48337        0.04829
C          0.28458        1.59714        0.06875
C         -4.31670       -0.25934        0.08123
C         -4.26471       -1.71036        0.53314
O         -3.31833       -2.37258        0.91829
N         -5.55204       -2.18917        0.48941
C         -5.91610       -3.53101        0.86820
C         -6.43264       -1.21507        0.03437
C         -7.79140       -1.36890       -0.17656
C         -8.49714       -0.27310       -0.67357
H         -9.56530       -0.36232       -0.84777
C         -7.84291        0.92229       -0.95046
C         -6.47253        1.06240       -0.72838
C         -5.74188       -0.01043       -0.21615
H          5.23374        2.96812        1.38395
H          6.03591       -3.35034       -1.45329
H          0.97392       -1.71483        0.40437
H         -1.46969       -1.86648        0.34203
H         -2.59052        4.47369       -0.33465
H         -1.03495        4.08748       -1.11960
H         -1.12085        4.26239        0.65481
H          0.76622        2.56178       -0.05224
H         -5.00768       -4.03731        1.19588
H         -6.34814       -4.06898        0.01731
H         -6.64210       -3.51606        1.68803
H         -8.28823       -2.31101        0.03065
H         -8.40152        1.76602       -1.34262
H         -5.98138        2.00021       -0.93419
