68
COMP91_400033.log	Energy: -2000854.8493994
C         -0.98766       -0.16037        0.16094
C          0.45542       -0.40924        0.12960
C          1.37702        0.36019       -0.51730
O          0.98778        1.42127       -1.24400
C          2.73231       -0.15091       -0.41626
C          3.95710        0.37691       -0.88570
C          4.17448        1.74868       -1.41700
O          5.11255        2.06370       -2.11137
O          3.28284        2.65653       -0.96486
C          3.50498        4.01991       -1.36313
C          5.10048       -0.42410       -0.76871
S          6.70275       -0.04854       -1.35760
C          7.31920       -1.55037       -0.71457
H          8.35813       -1.80940       -0.87419
C          6.38113       -2.30006       -0.09529
O          6.52114       -3.53432        0.44201
C          5.07985       -1.66749       -0.08709
C          3.89424       -2.13373        0.48015
C          3.86100       -3.32985        1.39037
O          4.44004       -3.39275        2.44354
O          3.05065       -4.27956        0.90826
C          2.89608       -5.42982        1.74340
C          2.73319       -1.39760        0.25933
S          1.14245       -1.86673        0.80466
C         -1.86414       -1.25391       -0.06983
C         -3.21931       -1.08246       -0.17121
C         -4.08636       -2.26512       -0.40572
O         -3.67808       -3.40495       -0.45552
N         -5.44747       -1.98967       -0.57039
C         -6.30877       -3.12623       -0.84658
O         -6.54054       -3.51918       -1.95125
O         -6.76398       -3.61425        0.29331
C         -7.64165       -4.73783        0.15846
C         -6.07199       -0.73991       -0.50899
O         -7.27321       -0.64546       -0.64051
C         -5.17208        0.41924       -0.28014
C         -5.70138        1.69003       -0.25673
H         -6.76786        1.82059       -0.40348
C         -4.85442        2.79515       -0.06919
C         -3.50314        2.61416        0.12827
C         -2.63734        3.81052        0.26847
O         -3.02500        4.95038        0.12588
N         -1.30553        3.53573        0.58129
C         -0.42120        4.65490        0.81031
O          0.46942        4.94433        0.05994
O         -0.74258        5.26774        1.93157
C          0.03202        6.43319        2.23271
C         -0.73680        2.26847        0.80948
O          0.31862        2.20318        1.39544
C         -1.54107        1.10743        0.33602
C         -2.93329        1.31447        0.13537
C         -3.78481        0.21232       -0.10109
H          1.67114        2.11189       -1.16566
H          2.67695        4.57686       -0.92784
H          3.50718        4.10060       -2.45181
H          4.46375        4.36232       -0.97030
H          7.44649       -3.80178        0.39439
H          2.22076       -6.09148        1.20304
H          2.46874       -5.14602        2.70791
H          3.86331       -5.91085        1.90478
H         -1.45909       -2.25341       -0.19517
H         -7.92209       -5.00741        1.17521
H         -7.12196       -5.56311       -0.33278
H         -8.52078       -4.45713       -0.42545
H         -5.24694        3.80612       -0.08772
H         -0.38378        6.82401        3.15957
H         -0.06404        7.16505        1.42800
H          1.08191        6.16261        2.36284
