60
COMP97_340003.log	Energy: -1831406.2699785
C          1.00451       -0.12262        0.26329
C         -0.42499       -0.38359        0.51026
C         -0.93260       -1.08486        1.57297
O         -0.25431       -1.57435        2.62935
C         -2.34650       -1.27937        1.49926
C         -3.06423       -1.96649        2.51789
N         -3.66176       -2.52428        3.34128
C         -2.90255       -0.73337        0.35348
S         -1.68457        0.02266       -0.60758
C         -4.26702       -0.70010       -0.14010
C         -5.34271       -1.21382        0.48815
C         -6.70294       -1.18102       -0.01454
C         -7.22886       -0.75717       -1.22593
C         -6.50227       -0.23545       -2.33048
N         -5.98637        0.20001       -3.27590
C         -8.65489       -0.90233       -1.30726
O         -9.39831       -0.56395       -2.37892
C         -9.18859       -1.43104       -0.16813
H        -10.23007       -1.63898        0.02628
S         -7.97233       -1.75460        1.00290
C          1.83574       -1.26961        0.16023
C          3.17649       -1.16590       -0.10673
C          3.99641       -2.40354       -0.20144
O          3.55365       -3.51575       -0.01716
N          5.34118       -2.21068       -0.52172
C          6.14559       -3.41159       -0.68695
O          6.26464       -3.97383       -1.73442
O          6.68355       -3.73888        0.47248
C          7.50671       -4.91235        0.44178
C          5.99531       -0.99053       -0.72070
O          7.18156       -0.95996       -0.96312
C          5.14459        0.22370       -0.61460
C          5.71025        1.46185       -0.81126
H          6.76755        1.52847       -1.04344
C          4.91625        2.61769       -0.70907
C          3.57656        2.52077       -0.40771
C          2.78119        3.76737       -0.29986
O          3.23022        4.87617       -0.49399
N          1.44820        3.58820        0.06222
C          0.64747        4.79555        0.19820
O         -0.03602        5.22345       -0.68342
O          0.81551        5.29651        1.40718
C          0.08952        6.50584        1.66266
C          0.79670        2.38598        0.35724
O         -0.32883        2.41620        0.80292
C          1.57948        1.13795        0.11221
C          2.96280        1.25835       -0.20104
C          3.76744        0.10114       -0.31041
H          0.66296       -1.27264        2.60105
H         -4.39033       -0.20505       -1.09910
H         -5.22363       -1.69413        1.45454
H         -8.83003       -0.20758       -3.07613
H          1.39854       -2.25741        0.27192
H          7.88491       -5.02681        1.45592
H          8.32639       -4.77470       -0.26615
H          6.90951       -5.77857        0.14956
H          5.34391        3.60246       -0.86333
H          0.32123        6.76841        2.69319
H         -0.98099        6.33250        1.53673
H          0.41941        7.28886        0.97698
