48
COMP84_100002.log	Energy: -1461331.5088672
C          1.87275       -0.11120       -0.07120
C          3.33396       -0.23148       -0.03854
C          4.27219        0.75288       -0.17940
F          3.98508        2.04213       -0.37963
C          5.61166        0.28872       -0.11672
S          7.18108        1.01022       -0.22951
C          7.93156       -0.54493       -0.00580
H          9.00701       -0.64509        0.00422
C          7.01849       -1.53857        0.14286
F          7.32247       -2.82168        0.32879
C          5.67481       -1.07445        0.07875
S          4.10814       -1.79294        0.19554
C          1.07535       -1.18400       -0.48850
C         -0.31458       -1.10320       -0.51483
C         -0.94856        0.07496       -0.12082
C         -2.34611        0.55262       -0.05715
C         -2.24512        2.02961        0.30437
O         -3.08979        2.89836        0.37127
N         -0.91263        2.23989        0.57174
O         -0.40048        3.46064        0.89190
C         -0.25519        4.27308       -0.27895
C         -0.11724        1.14543        0.26409
C          1.25724        1.08972        0.31612
C         -3.53700       -0.09934       -0.16988
C         -3.64037       -1.61720       -0.25568
O         -2.79679       -2.46942       -0.43737
N         -4.96887       -1.90033       -0.01869
O         -5.49105       -3.13430       -0.29920
C         -5.36077       -3.99327        0.83469
C         -5.76665       -0.76087       -0.06531
C         -7.14576       -0.71303       -0.06226
C         -7.73636        0.54836       -0.13292
H         -8.81914        0.63059       -0.13635
C         -6.95282        1.69644       -0.20940
C         -5.55982        1.62270       -0.21208
C         -4.93688        0.37581       -0.12921
H          1.54468       -2.10291       -0.82613
H         -0.89821       -1.94813       -0.84494
H          0.18894        5.20204        0.08004
H         -1.23198        4.47125       -0.72780
H          0.41352        3.79173       -1.00105
H          1.82759        1.94529        0.65355
H         -5.84910       -4.92295        0.53914
H         -5.86388       -3.56211        1.70657
H         -4.30552       -4.17660        1.05339
H         -7.72914       -1.62575       -0.02660
H         -7.42814        2.66965       -0.27452
H         -4.96533        2.52044       -0.27593
