52
COMP82_220002.log	Energy: -2538946.9161842
C          0.24925        0.31328       -0.36316
C          1.71824        0.35732       -0.44829
C          2.54520        1.37452       -0.84661
Cl         1.99829        2.91053       -1.42016
C          3.93119        1.02662       -0.80897
Cl         5.18593        2.09796       -1.30014
C          4.15276       -0.25092       -0.37343
S          2.65067       -1.03189       -0.00277
C          5.42777       -0.94003       -0.20392
S          5.87235       -2.26920       -1.22829
C          7.37622       -2.47345       -0.42525
H          8.07117       -3.24503       -0.72375
C          7.53629       -1.56448        0.57460
Cl         8.93430       -1.48900        1.58371
C          6.41650       -0.68402        0.70793
Cl         6.31763        0.54507        1.90820
C         -0.45374       -0.78341       -0.87094
C         -1.84331       -0.86355       -0.79260
C         -2.56224        0.16998       -0.19364
C         -3.99479        0.46858        0.03352
C         -4.02096        1.89154        0.57680
O         -4.94155        2.65215        0.78892
N         -2.70126        2.20915        0.80645
O         -2.29587        3.44144        1.22268
C         -2.29358        4.37168        0.13248
C         -1.82309        1.26814        0.28925
C         -0.45019        1.36634        0.24078
C         -5.11254       -0.30228       -0.07398
C         -5.05761       -1.79451       -0.38326
O         -4.15239       -2.49777       -0.77797
N         -6.31213       -2.27303       -0.07100
O         -6.72381       -3.50541       -0.50250
C         -6.41222       -4.49906        0.47461
C         -7.23073       -1.24630        0.13060
C         -8.59706       -1.37368        0.27424
C         -9.32662       -0.19996        0.46219
H        -10.40470       -0.25680        0.57845
C         -8.68822        1.03646        0.49286
C         -7.30553        1.14075        0.34124
C         -6.54413       -0.01661        0.16451
H          0.08840       -1.58454       -1.36363
H         -2.35918       -1.71751       -1.20226
H         -1.91873        5.30171        0.56080
H         -3.30820        4.51387       -0.24880
H         -1.62323        4.02924       -0.66369
H          0.05635        2.22433        0.66569
H         -6.81217       -5.42773        0.06492
H         -6.89581       -4.26896        1.42989
H         -5.32991       -4.58245        0.60421
H         -9.06992       -2.34739        0.22229
H         -9.27071        1.94144        0.63077
H         -6.82473        2.10600        0.35809
