34
COMP57_130100.log	Energy: -1819054.8244186
C          2.06142       -0.23392       -0.00091
C          0.68600        0.20961       -0.00056
C          0.18898        1.50302       -0.00044
C          0.96839        2.69422       -0.00077
N          1.59432        3.67059       -0.00106
C         -1.23235        1.53160       -0.00009
F         -1.88889        2.69014        0.00000
C         -1.84122        0.30846        0.00013
S         -0.62037       -0.93122       -0.00031
C         -3.24526       -0.05599        0.00079
C         -4.26514        0.82362       -0.00162
C         -5.67045        0.45878       -0.00088
C         -6.27660       -0.76898        0.00162
F         -5.61379       -1.92415        0.00411
C         -7.70163       -0.73661        0.00143
C         -8.52360       -1.90274        0.00364
N         -9.19159       -2.84941        0.00542
C         -8.17303        0.55090       -0.00130
H         -9.20672        0.86586       -0.00202
S         -6.89992        1.69227       -0.00360
C          2.52044       -1.53114       -0.00304
F          1.70993       -2.57994       -0.00511
N          3.84309       -1.74728       -0.00280
C          4.46443       -0.59499       -0.00056
S          3.45666        0.81138        0.00146
C          5.91052       -0.47303        0.00030
S          6.93800       -1.86921       -0.00294
C          8.29980       -0.81881        0.00015
H          9.31715       -1.17925       -0.00047
C          7.86176        0.47230        0.00330
F          8.65999        1.52589        0.00628
N          6.52709        0.67882        0.00345
H         -3.45655       -1.12040        0.00348
H         -4.05392        1.88805       -0.00458
