29
COMP22_130200.log	Energy: -1972905.1069804
C          1.95281       -0.04781        0.01675
C          0.53330       -0.37671        0.20055
C         -0.01197       -1.29688        1.04488
F          0.69964       -2.07343        1.84769
C         -1.43348       -1.35943        1.01949
C         -2.17851       -2.23817        1.85836
N         -2.77229       -2.96119        2.54256
C         -1.96804       -0.44565        0.12887
S         -0.72282        0.45336       -0.65304
C         -3.36965       -0.22207       -0.19504
S         -4.47445       -1.54309       -0.33756
C         -5.78734       -0.50814       -0.73535
H         -6.77830       -0.89683       -0.91700
C         -5.38577        0.78826       -0.76206
F         -6.18000        1.81465       -1.03345
C         -4.00461        0.97830       -0.45820
C         -3.40239        2.26926       -0.40714
N         -2.92958        3.32706       -0.37604
C          2.41492        1.27162        0.33270
N          1.65824        2.26863        0.78977
S          2.64999        3.54119        0.98327
N          4.06096        2.88963        0.50788
C          3.79422        1.62613        0.17265
C          4.72981        0.66733       -0.29810
H          5.77353        0.93151       -0.41481
C          4.27632       -0.58240       -0.59647
Cl         5.41346       -1.75621       -1.17860
C          2.88418       -0.94547       -0.45040
Cl         2.39246       -2.54184       -0.90122
