40
COMP31_100030.log	Energy: -1545358.0649475
C         -3.01508       -0.20862       -0.04881
C         -1.54766       -0.21084       -0.03163
C         -0.75248        0.86719       -0.22344
F         -1.24511        2.06005       -0.54606
C          0.66123        0.60715       -0.14035
C          1.74705        1.48531       -0.26740
C          1.62654        2.97314       -0.31284
O          2.33609        3.68171       -0.99084
O          0.71320        3.42478        0.54361
C          0.51931        4.84018        0.55060
C          3.02591        0.93278       -0.29721
S          4.51532        1.81045       -0.56777
C          5.43682        0.34987       -0.37228
H          6.51078        0.35274       -0.49400
C          4.66819       -0.72959       -0.12869
F          5.15760       -1.96255       -0.03010
C          3.25469       -0.44613       -0.05489
C          2.17459       -1.30543        0.18825
C          2.39043       -2.70204        0.67981
O          3.21372       -3.01727        1.50075
O          1.50908       -3.55246        0.13439
C          1.56685       -4.89479        0.62339
C          0.88708       -0.77611        0.07659
S         -0.61126       -1.66803        0.22369
C         -3.75335       -1.12554       -0.80073
F         -3.12660       -2.04309       -1.53810
C         -5.14143       -1.10191       -0.80466
F         -5.80061       -1.99648       -1.54150
C         -5.83801       -0.16113       -0.06493
H         -6.92090       -0.14150       -0.07284
C         -5.11873        0.75338        0.68541
F         -5.75670        1.66862        1.41552
C         -3.73024        0.72963        0.70087
F         -3.08449        1.61567        1.45563
H         -0.24945        5.02281        1.29975
H          0.18714        5.18231       -0.43232
H          1.44837        5.34989        0.81512
H          0.77885       -5.42969        0.09540
H          1.39309       -4.91539        1.70168
H          2.54367       -5.33319        0.40841
