40
COMP62_010003.log	Energy: -1410843.9106256
C         -0.89234        0.77962        0.17414
C          0.36780        0.08390        0.29123
C          0.48295       -1.23518        0.67622
H         -0.35038       -1.85171        0.99096
C          1.80908       -1.69300        0.57908
F          2.16197       -2.92293        0.94279
C          2.70908       -0.77153        0.10357
S          1.90368        0.72512       -0.21616
C          4.13403       -0.94751       -0.09665
S          5.30748        0.27090        0.31323
C          6.61199       -0.71977       -0.21841
H          7.62666       -0.35190       -0.15724
C          6.19077       -1.93039       -0.67804
H          6.83566       -2.71162       -1.05870
C          4.77771       -2.04377       -0.60538
F          4.13682       -3.12983       -1.02994
C         -2.14059        0.21828        0.13279
C         -2.81595       -1.07364        0.19109
O         -2.42043       -2.18785        0.44490
N         -4.19367       -0.71981       -0.10535
C         -5.32689       -1.54663       -0.17377
O         -6.42646       -1.10441       -0.40832
O         -5.02572       -2.81583        0.04121
C         -6.13594       -3.71577       -0.01187
C         -4.32234        0.65413       -0.32428
H         -5.28835        1.06281       -0.58068
C         -3.11173        1.22504       -0.17266
C         -2.44141        2.51184       -0.30206
O         -2.86052        3.62298       -0.48625
N         -1.04058        2.16371       -0.08372
C         -0.09796        3.14378        0.30629
O          0.67107        3.00374        1.22444
O         -0.19193        4.20683       -0.47433
C          0.62266        5.31660       -0.08725
H         -5.71047       -4.70026        0.17432
H         -6.61019       -3.67835       -0.99486
H         -6.87034       -3.45947        0.75469
H          0.35052        6.12081       -0.76843
H          1.68012        5.06297       -0.18998
H          0.41521        5.59811        0.94716
