45
COMP69_000022.log	Energy: -1311640.1299685
C          1.78410        0.72271       -0.02620
C          0.39616        0.35769       -0.01597
C         -0.71008        1.16786        0.20128
C         -1.90624        0.44132        0.16522
C         -1.71249       -0.89619       -0.10455
S         -0.07060       -1.31727       -0.27954
C         -3.00189       -1.55489       -0.19113
C         -3.99892       -0.63812        0.02931
C         -3.40057        0.74923        0.28054
O         -3.83713        1.14483        1.55060
C         -3.22039        2.31152        2.06381
O         -3.68361        1.71402       -0.69473
C         -5.05915        1.98780       -0.88770
C         -5.29085       -1.21940        0.03316
C         -5.23319       -2.56501       -0.20980
H         -6.05637       -3.26317       -0.27562
S         -3.61263       -3.14009       -0.42464
C          2.92076       -0.05309       -0.07599
C          3.35249       -1.43682       -0.08359
O          2.77738       -2.50851       -0.13088
N          4.77129       -1.29236       -0.00041
O          5.63136       -2.33287       -0.20631
C          5.72777       -3.14209        0.96877
C          5.19013        0.01647       -0.02409
H          6.24508        0.24970       -0.01004
C          4.07976        0.79906       -0.05547
C          3.64758        2.18751       -0.01162
O          4.21695        3.25456       -0.03674
N          2.22685        2.04319        0.04044
O          1.41470        3.13617        0.00109
C          1.26159        3.60615       -1.34354
H         -0.62495        2.22914        0.38456
H         -3.81003        2.61363        2.93092
H         -3.21725        3.12021        1.32438
H         -2.19158        2.10621        2.38499
H         -5.57042        2.15397        0.06715
H         -5.55204        1.17091       -1.42966
H         -5.10935        2.89662       -1.48983
H         -6.21561       -0.68614        0.21442
H          6.45559       -3.91412        0.71559
H          4.76036       -3.59543        1.19758
H          6.08636       -2.54902        1.81736
H          0.59397        4.46531       -1.26664
H          0.80568        2.83179       -1.97006
H          2.22862        3.91624       -1.74707
