35
COMP21_200100.log	Energy: -1954345.9646423
C         -2.57010       -0.47984       -0.19661
C         -1.10600       -0.34562       -0.16807
C         -0.36956        0.72068       -0.56334
Cl        -1.14401        2.11253       -1.25513
C          1.06288        0.56620       -0.38492
C          2.11675        1.44866       -0.67355
C          1.92248        2.82386       -1.26058
C          3.39550        0.97827       -0.38079
S          4.86115        1.90610       -0.65790
C          5.83545        0.61674       -0.04226
H          6.91104        0.71561        0.00209
C          5.11137       -0.45198        0.35022
Cl         5.90691       -1.85462        1.00450
C          3.67670       -0.29892        0.17528
C          2.62312       -1.18003        0.46479
C          2.81947       -2.55247        1.05763
C          1.34450       -0.70935        0.17255
S         -0.11642       -1.63493        0.45644
C         -3.41269        0.28243        0.68114
N         -2.99300        1.15233        1.59480
S         -4.32900        1.74299        2.31208
N         -5.48179        0.92355        1.50542
C         -4.84620        0.14698        0.63029
C         -5.46017       -0.75703       -0.28551
H         -6.53573       -0.87096       -0.33462
C         -4.63544       -1.46946       -1.09023
F         -5.11359       -2.33870       -1.97749
C         -3.20611       -1.33381       -1.04719
F         -2.52111       -2.08735       -1.90121
H          1.28760        3.44353       -0.62206
H          1.45062        2.77310       -2.24537
H          2.87710        3.34224       -1.37874
H          3.29903       -2.49661        2.03849
H          3.44839       -3.17728        0.41811
H          1.86527       -3.06931        1.18673
