47
COMP79_000020.log	Energy: -1743996.3786369
C         -0.73082       -1.56615        0.32870
C          0.63304       -1.08080        0.19369
C          1.17731        0.10324        0.63457
C          2.54447        0.20855        0.31529
C          3.03994       -0.89711       -0.32812
S          1.84162       -2.08671       -0.59500
C          4.45816       -0.71168       -0.57940
C          4.84708        0.51481       -0.10449
C          3.65328        1.24093        0.52554
O          3.49353        2.43669       -0.18319
C          2.29364        3.14284        0.08602
O          3.74098        1.45600        1.90749
C          4.83251        2.25264        2.32475
C          6.20675        0.80589       -0.38044
C          6.81767       -0.22607       -1.03899
H          7.84701       -0.29147       -1.36356
S          5.74018       -1.54963       -1.34989
C         -1.94986       -0.91452        0.24260
C         -2.18041        0.51859       -0.06912
O         -1.28317        1.34330       -0.17951
C         -3.60063        0.90375       -0.23608
C         -4.00698        2.16976       -0.57553
C         -3.18593        3.38715       -0.86685
S         -5.73491        2.23691       -0.64002
C         -5.92934        0.57354       -0.21010
C         -7.28741       -0.04316       -0.08730
C         -4.69941       -0.00488       -0.03083
C         -4.48497       -1.41681        0.32466
O         -5.39214       -2.21429        0.50888
C         -3.05889       -1.81578        0.42074
C         -2.67997       -3.10460        0.64239
H         -3.33575       -3.95115        0.79217
S         -0.97606       -3.26235        0.65359
H          0.59617        0.84872        1.15579
H          2.41034        4.12420       -0.37721
H          2.13622        3.26603        1.16372
H          1.42544        2.63730       -0.35329
H          4.89271        3.18381        1.74990
H          5.78042        1.70686        2.23424
H          4.65637        2.48495        3.37647
H          6.71155        1.72820       -0.12113
H         -2.46145        3.17730       -1.65791
H         -2.61027        3.67797        0.01664
H         -3.81525        4.22749       -1.17251
H         -8.07693        0.69613       -0.24656
H         -7.41301       -0.49242        0.90126
H         -7.40581       -0.84980       -0.81671
