30
COMP52_310200.log	Energy: -2222768.0580937
C          0.92013        0.48412        0.26851
C         -0.48498        0.12634        0.39347
C         -1.02704       -0.92643        1.10525
C         -0.28722       -1.82678        1.92628
N          0.30933       -2.56138        2.59517
C         -2.44350       -0.98822        0.97047
F         -3.16203       -1.90038        1.60480
C         -2.97970       -0.02116        0.17112
S         -1.71604        0.99221       -0.45499
C         -4.38201        0.18087       -0.14625
S         -5.15711        1.73833       -0.08224
C         -6.66564        1.08593       -0.55809
H         -7.53178        1.72148       -0.67664
C         -6.60662       -0.26986       -0.74624
C         -7.71039       -1.08324       -1.14033
N         -8.60798       -1.74149       -1.46138
C         -5.29045       -0.77116       -0.50984
F         -4.99378       -2.05287       -0.65375
C          1.52605        1.71717        0.34369
Cl         0.70449        3.20176        0.65916
N          2.86891        1.75312        0.17895
C          3.32570        0.54793       -0.02997
S          2.14298       -0.71163       -0.03977
C          4.73433        0.25672       -0.24057
S          5.93586        1.50685       -0.20810
C          7.12798        0.30944       -0.51949
H          8.17713        0.54768       -0.61274
C          6.53115       -0.91339       -0.62116
Cl         7.38222       -2.38236       -0.93241
N          5.18188       -0.94761       -0.46474
