27
COMP22_210200.log	Energy: -2433965.3127364
C         -2.03349        0.05394       -0.06173
C         -0.63737       -0.27736        0.26730
C         -0.18743       -1.13084        1.23069
Cl        -1.18965       -2.04954        2.28717
C          1.23063       -1.18798        1.28037
F          1.87581       -1.96434        2.14938
C          1.86540       -0.38892        0.37213
S          0.68053        0.46469       -0.57502
C          3.29216       -0.23168        0.17288
S          4.48297       -1.09832        1.10400
C          5.78645       -0.35466        0.26120
H          6.81140       -0.59312        0.50563
C          5.34416        0.51376       -0.68687
Cl         6.34750        1.44900       -1.73263
C          3.92423        0.57705       -0.72993
F          3.27546        1.36436       -1.58637
C         -2.60889        1.26217        0.44669
N         -1.98483        2.16005        1.20877
S         -3.07180        3.32997        1.51177
N         -4.36041        2.75581        0.70333
C         -3.97126        1.60243        0.15741
C         -4.77138        0.74185       -0.64043
H         -5.80182        0.99671       -0.85531
C         -4.20843       -0.40323       -1.11792
Cl        -5.17957       -1.45933       -2.09343
C         -2.83391       -0.75154       -0.83384
Cl        -2.18810       -2.21695       -1.48828
