54
COMP92_420003.log	Energy: -2243903.9265879
C          0.50518       -0.16320        0.23773
C         -0.90026       -0.59547        0.33058
C         -1.43795       -1.34862        1.34235
O         -0.83597       -1.73916        2.48434
C         -2.79061       -1.72899        1.08586
Cl        -3.68549       -2.70530        2.18612
C         -3.26256       -1.27267       -0.11315
S         -2.05166       -0.35405       -0.94446
C         -4.58424       -1.46821       -0.69961
S         -4.79380       -2.38530       -2.15793
C         -6.49985       -2.12556       -2.14724
H         -7.12311       -2.53785       -2.92902
C         -6.89219       -1.37955       -1.07489
O         -8.14042       -0.98253       -0.74646
C         -5.78686       -0.99991       -0.24762
Cl        -5.99185       -0.01295        1.14840
C          1.48038       -1.19458        0.29895
C          2.81808       -0.93288        0.15441
C          3.79150       -2.05403        0.23280
O          3.47679       -3.20378        0.44879
N          5.12985       -1.70226        0.04603
C          6.10611       -2.77135        0.18310
O          6.63893       -3.03634        1.21947
O          6.27916       -3.35658       -0.98688
C          7.21989       -4.43802       -0.98303
C          5.63843       -0.42990       -0.23441
O          6.82606       -0.26657       -0.40875
C          4.63726        0.66642       -0.29409
C          5.05955        1.95161       -0.54511
H          6.11650        2.13925       -0.69926
C          4.12176        2.99706       -0.59724
C          2.78321        2.74627       -0.39551
C          1.83266        3.88315       -0.44927
O          2.15639        5.02570       -0.69337
N          0.50660        3.55682       -0.17955
C         -0.44448        4.65728       -0.17562
O         -1.10728        4.94713       -1.12663
O         -0.43210        5.24045        1.00842
C         -1.32700        6.35191        1.13929
C         -0.01247        2.30192        0.16424
O         -1.15982        2.21966        0.53990
C          0.93362        1.15112        0.05983
C          2.31515        1.43125       -0.14058
C          3.26458        0.38528       -0.09379
H          0.01812       -1.29670        2.57051
H         -8.76274       -1.31110       -1.40582
H          1.16116       -2.22297        0.44016
H          7.23075       -4.81520       -2.00400
H          6.89465       -5.21264       -0.28575
H          8.20675       -4.07156       -0.69304
H          4.43316        4.01711       -0.79466
H         -1.18226        6.72158        2.15283
H         -2.35666        6.02086        0.98954
H         -1.07641        7.12099        0.40594
