34
COMP67_230001.log	Energy: -1741493.7852508
C         -3.42384       -0.69857       -0.21942
C         -2.11710       -0.08436       -0.28469
C         -1.82079        1.24473       -0.50023
C         -2.78995        2.23921       -0.82333
N         -3.56390        3.04316       -1.13443
C         -0.41290        1.48955       -0.47717
Cl         0.24386        3.06372       -0.72352
C          0.35012        0.36809       -0.26158
S         -0.67849       -1.02090       -0.06583
C          1.79568        0.30189       -0.19040
C          2.50203       -0.82842       -0.01088
C          3.94771       -0.95432        0.07372
C          4.96630       -0.03768        0.18555
Cl         4.77093        1.67335        0.27863
C          6.26906       -0.63216        0.24534
C          7.48709        0.10439        0.36279
N          8.48281        0.68905        0.45784
C          6.22036       -1.99856        0.17953
H          7.05736       -2.68192        0.20284
S          4.61608       -2.56506        0.04669
C         -4.58244       -0.23248        0.32673
C         -5.12536        0.84787        1.15864
O         -4.64805        1.86411        1.60775
N         -6.46019        0.40957        1.38350
H         -7.11726        0.95852        1.91604
C         -6.71352       -0.81424        0.80883
H         -7.67660       -1.29290        0.92473
C         -5.59640       -1.23501        0.15934
C         -5.01754       -2.37762       -0.54914
O         -5.47267       -3.42507       -0.94836
N         -3.65919       -1.98013       -0.70641
H         -3.04227       -2.47897       -1.33095
H          2.29653        1.25627       -0.30063
H          1.96727       -1.77364        0.07702
