44
COMP51_400130.log	Energy: -1958375.4220690
C          1.96673       -0.60611        0.04982
C          0.53308       -0.44427        0.04473
C         -0.13330        0.75329        0.02030
O          0.57881        1.88711        0.06317
C         -1.58068        0.61203       -0.00192
C         -2.62620        1.57542       -0.01032
C         -2.35282        3.02723       -0.11472
O         -1.30469        3.54379       -0.47622
O         -3.40542        3.77410        0.19911
C         -3.25387        5.18973        0.05556
C         -3.95481        1.10818        0.01676
S         -5.43056        2.05436       -0.00021
C         -6.41052        0.61227       -0.04604
H         -7.48789        0.70190       -0.09625
C         -5.68246       -0.52408       -0.02223
O         -6.12360       -1.80115       -0.08905
C         -4.25852       -0.27528        0.03697
C         -3.23361       -1.21900        0.07366
C         -3.50637       -2.68567        0.27625
O         -3.92412       -3.15181        1.30424
O         -3.16071       -3.39448       -0.80194
C         -3.32464       -4.80963       -0.67473
C         -1.92212       -0.76609        0.02940
S         -0.53849       -1.82445        0.05272
C          2.68745       -1.77781        0.06581
F          2.11392       -2.97795        0.09179
N          4.02601       -1.71272        0.05247
C          4.39330       -0.45486        0.02724
S          3.11083        0.70693        0.02013
C          5.78554       -0.04657        0.00767
S          7.06443       -1.22210        0.02308
C          8.20232        0.07092       -0.01405
H          9.26985       -0.08668       -0.01924
C          7.52420        1.25108       -0.03412
F          8.10565        2.44081       -0.06421
N          6.17322        1.20093       -0.02260
H          0.01040        2.63952       -0.22099
H         -4.22124        5.60897        0.32659
H         -2.99676        5.43931       -0.97558
H         -2.47219        5.55283        0.72539
H         -7.08785       -1.81118       -0.07421
H         -2.97945       -5.22898       -1.61852
H         -4.37610       -5.05124       -0.50393
H         -2.72705       -5.18853        0.15736
