31
COMP27_110100.log	Energy: -1577967.0999880
C          2.95690        0.44593        0.15687
C          1.54726        0.08647        0.30795
C          1.04115       -1.04929        0.87257
F          1.76744       -1.99407        1.45430
C         -0.37178       -1.13330        0.81632
F         -1.02218       -2.17735        1.33340
C         -0.97284       -0.06346        0.21044
S          0.24688        1.06805       -0.29602
C         -2.37326        0.22324       -0.03510
C         -3.39053       -0.59652        0.29223
C         -4.79186       -0.31210        0.04809
C         -5.39783        0.78011       -0.51121
F         -4.75257        1.85594       -0.96600
C         -6.81421        0.68638       -0.57589
F         -7.55350        1.66472       -1.09041
C         -7.29880       -0.47566       -0.06777
H         -8.33038       -0.78645        0.00075
S         -6.01131       -1.47264        0.49803
C          3.91271       -0.49250       -0.36819
N          3.63754       -1.72466       -0.78444
S          5.04494       -2.36590       -1.28939
N          6.05168       -1.11764       -1.00847
C          5.30422       -0.14024       -0.49977
C          5.76820        1.15442       -0.12660
H          6.80950        1.43322       -0.22594
C          4.84023        2.02180        0.34529
F          5.17152        3.25670        0.71538
C          3.45573        1.67381        0.48772
F          2.66472        2.62705        0.97570
H         -2.58462        1.17111       -0.51987
H         -3.17802       -1.54546        0.77452
