36
COMP57_310400.log	Energy: -1788920.1618937
C         -2.08229       -0.13883        0.39168
C         -0.68413        0.24558        0.35512
C         -0.13109        1.47532        0.57138
F         -0.84339        2.55220        0.87483
C          1.28676        1.53467        0.45817
C          2.01241        2.73939        0.67793
N          2.61147        3.71666        0.85435
C          1.83905        0.30194        0.14948
S          0.58842       -0.88228       -0.03343
C          3.21222       -0.12775       -0.03390
C          4.29341        0.67670       -0.01215
C          5.66753        0.24575       -0.19201
C          6.22632       -1.00885       -0.38148
C          5.51181       -2.23796       -0.43972
N          4.92083       -3.23502       -0.48565
C          7.64574       -0.94646       -0.51216
F          8.36812       -2.04329       -0.70005
C          8.16222        0.30585       -0.42592
H          9.19964        0.59677       -0.49522
S          6.90736        1.45473       -0.17934
C         -2.64472       -1.21838        1.04156
O         -2.01466       -2.12927        1.80121
N         -3.98372       -1.37636        0.89654
C         -4.47180       -0.42630        0.14676
S         -3.33485        0.73452       -0.44440
C         -5.88453       -0.31743       -0.17885
S         -7.03485       -1.46569        0.41696
C         -8.26636       -0.59062       -0.41289
H         -9.30133       -0.89993       -0.38053
C         -7.71530        0.48320       -1.06207
O         -8.34401        1.40618       -1.81561
N         -6.37007        0.63333       -0.92786
H          3.33769       -1.19266       -0.20486
H          4.16747        1.74328        0.14825
H         -1.10039       -1.85379        1.95210
H         -9.28678        1.20519       -1.84145
