42
COMP91_000011.log	Energy: -1334705.9086916
C          0.60740       -0.16452       -0.00913
C         -0.87063       -0.09702        0.06339
C         -1.74477       -0.42390       -0.91450
H         -1.43815       -0.70656       -1.91538
C         -3.12181       -0.32703       -0.50009
C         -4.27294       -0.56900       -1.25044
H         -4.19937       -0.86633       -2.29203
C         -5.50204       -0.41439       -0.62558
S         -7.08137       -0.65399       -1.34255
C         -7.85992       -0.23802        0.16134
H         -8.94044       -0.24605        0.21677
C         -6.99273        0.06672        1.15064
H         -7.29673        0.34853        2.15212
C         -5.61433       -0.02395        0.73429
C         -4.46172        0.21865        1.48426
H         -4.53469        0.51969        2.52479
C         -3.23416        0.06617        0.85835
S         -1.65779        0.30615        1.57800
C          1.18095       -1.45941        0.02786
C          2.53953       -1.64284        0.00482
C          3.09356       -3.02380        0.04800
O          2.40966       -4.02418        0.08311
N          4.48081       -3.10198        0.04628
H          4.87073       -4.03711        0.07892
C          5.40289       -2.06278        0.00515
O          6.59505       -2.28496        0.01145
C          4.81748       -0.69559       -0.04757
C          5.65285        0.39616       -0.09481
H          6.72594        0.23783       -0.09210
C          5.10988        1.69164       -0.14660
C          3.74628        1.87766       -0.14993
C          3.21336        3.26269       -0.21246
O          3.90977        4.25562       -0.24867
N          1.83196        3.35063       -0.23438
H          1.44745        4.28580       -0.30597
C          0.88835        2.32717       -0.20966
O         -0.28925        2.59576       -0.29650
C          1.44208        0.94343       -0.08674
C          2.85665        0.77211       -0.09695
C          3.41008       -0.52809       -0.04573
H          0.53093       -2.32638        0.08397
H          5.75195        2.56520       -0.18433
