54
COMP84_300003.log	Energy: -1594839.0408435
C          1.98731       -0.20885       -0.17237
C          3.44304       -0.39074       -0.09011
C          4.33149        0.24560        0.75129
C          3.96958        1.19454        1.75270
N          3.71528        1.96591        2.58016
C          5.67233       -0.20530        0.54100
S          7.20885        0.16225        1.24770
C          7.98754       -0.97880        0.21306
H          9.05623       -1.12960        0.27825
C          7.12432       -1.61869       -0.63717
C          7.52418       -2.60548       -1.58726
N          7.83160       -3.40938       -2.36362
C          5.78072       -1.16602       -0.44009
S          4.24267       -1.53128       -1.13987
C          1.14177       -1.31131       -0.33763
C         -0.23602       -1.15386       -0.37796
C         -0.79456        0.11885       -0.24541
C         -2.16894        0.62671       -0.31936
C         -2.04216        2.13121       -0.32061
O         -2.90758        2.96301       -0.42317
N         -0.67022        2.41752       -0.12344
C         -0.09033        3.69237       -0.00673
O          1.09347        3.89275       -0.13978
O         -0.99187        4.61631        0.28545
C         -0.47338        5.94335        0.40731
C          0.07673        1.22025       -0.14312
C          1.45232        1.08261       -0.09499
C         -3.37810       -0.00757       -0.28562
C         -3.52049       -1.42698        0.22289
O         -2.65318       -2.16917        0.60810
N         -4.90511       -1.70314        0.26824
C         -5.50859       -2.88115        0.73255
O         -6.70063       -2.99123        0.89904
O         -4.62185       -3.84291        0.94607
C         -5.17271       -5.06421        1.44369
C         -5.63256       -0.58968       -0.21998
C         -7.00077       -0.48637       -0.41411
C         -7.48564        0.68480       -0.99321
H         -8.55495        0.78889       -1.14963
C         -6.62501        1.70641       -1.38252
C         -5.25563        1.59453       -1.17444
C         -4.74165        0.44707       -0.56261
H          1.56069       -2.31063       -0.40369
H         -0.86857       -2.02064       -0.48293
H         -1.33638        6.56262        0.64629
H         -0.01712        6.26298       -0.53214
H          0.27060        5.98953        1.20527
H          2.08744        1.95389       -0.03115
H         -4.32135       -5.73340        1.55697
H         -5.89575       -5.47411        0.73505
H         -5.66310       -4.89860        2.40540
H         -7.66333       -1.28806       -0.12420
H         -7.02091        2.60270       -1.84854
H         -4.59429        2.39283       -1.47040
