27
COMP44_100002.log	Energy: -1363332.4642371
C         -0.56142        1.01985       -0.02637
C          0.79233        0.50280       -0.01615
C          1.94586        1.24293        0.05322
F          1.96069        2.57486        0.12065
C          3.13032        0.47382        0.04830
S          4.82954        0.79982        0.10914
C          5.17163       -0.90562        0.03353
H          6.18995       -1.26613        0.04359
C          4.04218       -1.65633       -0.03459
F          4.02285       -2.98498       -0.10111
C          2.85209       -0.87532       -0.02692
S          1.16068       -1.21962       -0.09278
C         -1.76691        0.36929       -0.09259
C         -2.25249       -1.02868       -0.17265
O         -1.66214       -2.08111       -0.21107
N         -3.65185       -0.89065       -0.17134
O         -4.47034       -1.95271       -0.39043
C         -4.87238       -2.54339        0.84804
C         -4.13977        0.42817       -0.14029
O         -5.29915        0.75170       -0.14733
C         -2.89524        1.23520       -0.07582
C         -2.58117        2.54940        0.00167
H         -3.24010        3.40631        0.02879
S         -0.86664        2.75008        0.05469
H         -5.52063       -3.37244        0.56258
H         -5.43096       -1.82296        1.45327
H         -4.00143       -2.91944        1.39306
