36
COMP61_000010.log	Energy: -1097592.2409726
C         -1.87156        0.60439       -0.05161
C         -0.42161        0.40832        0.05493
C          0.45194        0.25943       -0.96765
H          0.14840        0.25187       -2.00819
C          1.81532        0.10603       -0.52959
C          2.96128       -0.06529       -1.30789
H          2.89223       -0.09724       -2.39102
C          4.17768       -0.19302       -0.65474
S          5.74797       -0.41751       -1.39490
C          6.51218       -0.46391        0.17111
H          7.58359       -0.60170        0.23220
C          5.64778       -0.31856        1.19846
H          5.94494       -0.32595        2.24059
C          4.28230       -0.15785        0.76142
C          3.13598        0.01471        1.53896
H          3.20343        0.04013        2.62231
C          1.91989        0.14709        0.88498
S          0.35258        0.37136        1.62911
C         -2.87825       -0.31049       -0.07456
C         -3.15688       -1.74295       -0.01381
O         -2.45304       -2.72550        0.08352
N         -4.58333       -1.79064       -0.10585
C         -5.31853       -3.03469       -0.09301
C         -5.12123       -0.52707       -0.21196
H         -6.19296       -0.39420       -0.29039
C         -4.12357        0.39320       -0.19617
C         -3.84333        1.82431       -0.24776
O         -4.55159        2.80471       -0.35096
N         -2.42147        1.87546       -0.14899
C         -1.68679        3.12097       -0.16844
H         -4.58704       -3.83318        0.04320
H         -5.84745       -3.19102       -1.03848
H         -6.03531       -3.05802        0.73351
H         -2.42423        3.91762       -0.27823
H         -0.98752        3.15052       -1.00893
H         -1.13183        3.26445        0.76344
