36
COMP64_200003.log	Energy: -1814557.1858668
C          0.44328        0.85891        0.10937
C         -0.81126        0.12838        0.12001
C         -1.15125       -0.91568        0.93864
Cl        -0.20927       -1.49715        2.25568
C         -2.42982       -1.44834        0.62065
S         -3.41586       -2.72304        1.24840
C         -4.64052       -2.38304        0.06617
H         -5.55061       -2.96576        0.04139
C         -4.30946       -1.35122       -0.75673
Cl        -5.30706       -0.75889       -2.03879
C         -3.03333       -0.80433       -0.43957
S         -2.05369        0.46704       -1.07135
C          1.69701        0.35411        0.01654
C          2.39567       -0.92166       -0.15104
O          2.00523       -2.05816       -0.14973
N          3.77641       -0.48576       -0.33623
C          4.93097       -1.26105       -0.52693
O          6.01905       -0.76194       -0.68898
O          4.65903       -2.55450       -0.50240
C          5.78684       -3.41345       -0.68963
C          3.86605        0.90844       -0.32553
H          4.82424        1.37602       -0.49988
C          2.64088        1.42481       -0.10379
C          1.92239        2.69701       -0.06793
O          2.30561        3.83554       -0.08632
N          0.53021        2.26937        0.05006
C         -0.51760        3.11198        0.48687
O         -1.41057        2.74307        1.20743
O         -0.37526        4.32624       -0.01944
C         -1.33040        5.28597        0.44020
H          5.38555       -4.42339       -0.62640
H          6.53055       -3.24273        0.09175
H          6.24145       -3.23848       -1.66716
H         -1.06495        6.21516       -0.06099
H         -1.26113        5.40092        1.52418
H         -2.34231        4.97473        0.17205
