28
COMP52_000100.log	Energy: -1530280.9746483
C          0.39118        0.10166        0.00548
C         -0.99730       -0.30617        0.04343
C         -1.49173       -1.58474        0.12360
H         -0.86072       -2.46591        0.16721
C         -2.90646       -1.63804        0.15755
H         -3.47118       -2.55929        0.24368
C         -3.49408       -0.40037        0.10003
S         -2.29643        0.85155       -0.01221
C         -4.90988       -0.06601        0.11383
S         -6.09218       -1.18346       -0.50038
C         -7.38438       -0.10612       -0.12719
H         -8.40626       -0.39001       -0.33745
C         -6.93041        1.05536        0.42328
H         -7.58156        1.86527        0.72961
C         -5.51419        1.07962        0.56316
H         -4.96420        1.90462        1.00211
C          0.93386        1.35744       -0.10047
F          0.19858        2.45944       -0.18737
N          2.27360        1.48144       -0.11743
C          2.82047        0.29919       -0.02335
S          1.70939       -1.02849        0.09274
C          4.25382        0.07629       -0.01403
S          5.37655        1.39352       -0.13834
C          6.66456        0.25413       -0.04798
H          7.70460        0.53996       -0.08173
C          6.13750       -0.99629        0.06551
F          6.86055       -2.10114        0.15749
N          4.79095       -1.11073        0.08592
