35
COMP42_310003.log	Energy: -1598752.0025869
C         -1.43641       -1.67235       -0.09935
C          0.00993       -1.54135       -0.01797
C          0.95567       -2.54475        0.13813
C          0.71283       -3.94070        0.28256
N          0.54512       -5.08191        0.40043
C          2.27638       -2.02887        0.15421
F          3.33214       -2.82628        0.30181
C          2.37035       -0.67443        0.01574
S          0.78003        0.01013       -0.13335
C          3.57306        0.13301        0.00405
S          5.16857       -0.53502        0.22356
C          5.90898        1.00041        0.07803
H          6.98220        1.10403        0.15259
C          4.99779        2.00167       -0.13016
C          5.32181        3.38162       -0.28921
N          5.58779        4.50174       -0.41810
C          3.67016        1.48562       -0.16963
F          2.61644        2.27312       -0.36000
C         -2.41962       -0.70870       -0.09371
C         -2.50728        0.76899       -0.01308
O         -1.62442        1.58823        0.00877
N         -3.89955        1.05360       -0.02635
C         -4.45847        2.36068       -0.00891
O         -5.41353        2.67874       -0.66091
O         -3.78170        3.12989        0.83245
C         -4.19524        4.49921        0.86394
C         -4.71054       -0.11693       -0.14707
O         -5.90880       -0.15015       -0.16171
C         -3.73078       -1.22558       -0.19009
C         -3.79001       -2.57829       -0.27635
H         -4.65746       -3.21923       -0.35504
S         -2.20513       -3.24358       -0.23787
H         -3.52715        4.98331        1.57412
H         -5.23358        4.57437        1.19356
H         -4.09427        4.94852       -0.12642
