31
COMP42_340001.log	Energy: -1425680.6791680
C          2.34285        0.50639        0.07133
C          0.92167        0.79786        0.01581
C          0.30501        2.03971       -0.05609
C          0.91957        3.32070       -0.13311
N          1.30128        4.41570       -0.19876
C         -1.11695        1.95924       -0.06559
O         -1.94906        3.01930       -0.13680
C         -1.58691        0.66962       -0.00095
S         -0.26427       -0.45956        0.06101
C         -2.97078        0.24507       -0.00102
S         -4.30755        1.36518       -0.11368
C         -5.46000        0.10857       -0.05162
H         -6.51881        0.32143       -0.09339
C         -4.87086       -1.12446        0.05278
C         -5.54655       -2.37653        0.12699
N         -6.01559       -3.43587        0.19134
C         -3.44140       -1.04362        0.08199
O         -2.60830       -2.09782        0.18303
C          3.01427       -0.68952       -0.02500
C          2.69478       -2.12934       -0.22471
O          1.63067       -2.68940       -0.34404
N          3.94205       -2.76324       -0.24411
H          4.03540       -3.76275       -0.35693
C          5.04137       -1.91368       -0.06280
O          6.19847       -2.24905       -0.03593
C          4.42344       -0.56860        0.07754
C          4.86042        0.70117        0.26068
H          5.87223        1.06819        0.36487
S          3.52264        1.78566        0.30873
H         -1.44404        3.84454       -0.17249
H         -3.10603       -2.92759        0.19413
