23
COMP24_200100.log	Energy: -1808631.0162295
C         -1.38472       -0.23402        0.22952
C          0.07603       -0.20207        0.09798
C          0.88088       -1.10901       -0.53563
Cl         0.32180       -2.49654       -1.39854
C          2.25917       -0.77301       -0.44052
S          3.73604       -1.47034       -1.01156
C          4.64682       -0.18094       -0.28632
H          5.72427       -0.16114       -0.36969
C          3.85977        0.72742        0.35022
Cl         4.44844        2.13005        1.17267
C          2.47726        0.39140        0.26551
S          1.00369        1.09873        0.81806
C         -2.21936        0.84148       -0.23175
N         -1.79156        1.95832       -0.81310
S         -3.11734        2.84207       -1.14611
N         -4.27704        1.85089       -0.57804
C         -3.65303        0.77820       -0.09654
C         -4.28027       -0.35388        0.50060
H         -5.35585       -0.41678        0.60622
C         -3.46540       -1.34750        0.92942
F         -3.95423       -2.44261        1.50557
C         -2.03568       -1.28652        0.80655
F         -1.36905       -2.32326        1.29893
