34
COMP47_020000.log	Energy: -1865585.8994605
C          2.97312       -0.74309       -0.07832
C          1.54261       -0.96361        0.06695
C          0.84318       -2.11119        0.38634
Cl         1.55864       -3.64344        0.77389
C         -0.56120       -1.96082        0.41424
H         -1.23514       -2.76249        0.68868
C         -0.95452       -0.68597        0.09518
S          0.41137        0.33060       -0.20515
C         -2.29599       -0.13118        0.00620
C         -3.41184       -0.87357       -0.09167
C         -4.76126       -0.33166       -0.12519
C         -5.20493        0.92785        0.18802
H         -4.57023        1.72765        0.54869
C         -6.60796        1.06195        0.01284
Cl        -7.45080        2.54407        0.33592
C         -7.22631       -0.07461       -0.41675
H         -8.27773       -0.22419       -0.61441
S         -6.08586       -1.34388       -0.62131
C          3.69380        0.42717       -0.05645
C          3.45182        1.87749        0.16663
O          2.42320        2.47950        0.37889
N          4.71595        2.47761        0.07666
C          4.93712        3.89827        0.23447
C          5.75237        1.57611       -0.18995
O          6.91652        1.87565       -0.31131
C          5.08394        0.25493       -0.27781
C          5.45844       -1.02989       -0.48458
H          6.44599       -1.43369       -0.66013
S          4.08306       -2.06627       -0.40349
H         -2.37344        0.95402        0.01017
H         -3.32393       -1.95611       -0.16148
H          3.96511        4.36850        0.38635
H          5.41401        4.30603       -0.66011
H          5.58115        4.08901        1.09673
