32
COMP57_110000.log	Energy: -1703326.6083817
C          2.31391       -0.24394       -0.00218
C          0.91853        0.13946       -0.00143
C          0.37462        1.39362       -0.00188
F          1.08808        2.51802       -0.00274
C         -1.04120        1.41235       -0.00139
F         -1.71622        2.56251       -0.00183
C         -1.61576        0.17118       -0.00059
S         -0.36189       -1.04022       -0.00008
C         -3.00804       -0.23066       -0.00002
C         -4.05155        0.62172       -0.00068
C         -5.44501        0.21919       -0.00010
C         -6.01330       -1.02579        0.00252
F         -5.32994       -2.17224        0.00523
C         -7.43407       -1.01360        0.00227
F         -8.13969       -2.14075        0.00465
C         -7.95959        0.23823       -0.00047
H         -9.00304        0.51505       -0.00123
S         -6.70596        1.42185       -0.00314
C          2.83786       -1.51344       -0.00706
H          2.25054       -2.42495       -0.01170
N          4.19623       -1.60602       -0.00613
C          4.73462       -0.41850       -0.00066
S          3.61483        0.90988        0.00377
C          6.16868       -0.18045        0.00145
S          7.30346       -1.49858       -0.00414
C          8.57788       -0.34060        0.00223
H          9.61574       -0.64173        0.00145
C          8.06605        0.92254        0.00790
H          8.65263        1.83281        0.01261
N          6.70023        1.00957        0.00752
H         -3.19213       -1.30021        0.00101
H         -3.86774        1.69153       -0.00180
