60
COMP82_330003.log	Energy: -1759114.8193376
C          0.98135        0.47546        0.09090
C          2.44228        0.53830        0.23035
C          3.20319        1.37522        1.01780
C          2.66206        2.35736        1.90168
N          2.23199        3.15620        2.62247
C          4.60949        1.11645        0.91065
C          5.59242        1.83121        1.66026
N          6.39387        2.41354        2.26166
C          4.89990        0.08390        0.04455
S          3.44939       -0.54695       -0.65366
C          6.20556       -0.45685       -0.31203
S          7.56144        0.57830       -0.60696
C          8.58757       -0.74388       -0.94977
H          9.62855       -0.58777       -1.19627
C          7.93409       -1.94197       -0.85526
C          8.55898       -3.20573       -1.08558
N          9.07173       -4.22677       -1.27612
C          6.55606       -1.78053       -0.48724
C          5.66458       -2.87940       -0.29801
N          4.94053       -3.77211       -0.14986
C          0.33644       -0.76322        0.01166
C         -1.04483       -0.84017       -0.09079
C         -1.80613        0.32959       -0.11041
C         -3.23993        0.59296       -0.28583
C         -3.35998        2.08992       -0.42253
O         -4.34520        2.75378       -0.62242
N         -2.06195        2.61803       -0.21835
C         -1.69907        3.97629       -0.22727
O         -0.55576        4.35047       -0.33927
O         -2.74898        4.76706       -0.07966
C         -2.45459        6.16681       -0.09916
C         -1.13138        1.56560       -0.09050
C          0.24470        1.66339        0.02041
C         -4.32616       -0.23493       -0.25905
C         -4.25672       -1.62022        0.35315
O         -3.31576       -2.14508        0.89226
N         -5.55772       -2.15941        0.28471
C         -5.97395       -3.40296        0.78584
O         -7.13591       -3.70823        0.91409
O         -4.94530       -4.18656        1.07325
C         -5.29294       -5.45488        1.63358
C         -6.43218       -1.22670       -0.32376
C         -7.77288       -1.39710       -0.62834
C         -8.41854       -0.36470       -1.30593
H         -9.47113       -0.47544       -1.54791
C         -7.73642        0.78908       -1.67933
C         -6.39277        0.95040       -1.36384
C         -5.72344       -0.05454       -0.65746
H          0.91144       -1.68270        0.06685
H         -1.52147       -1.80648       -0.12598
H         -3.41838        6.65901        0.01856
H         -1.99119        6.44557       -1.04795
H         -1.78328        6.42640        0.72208
H          0.72671        2.62989        0.02174
H         -4.34248       -5.95867        1.80117
H         -5.91667       -6.02324        0.94043
H         -5.82805       -5.32044        2.57613
H         -8.29484       -2.29878       -0.34443
H         -8.25368        1.57665       -2.21741
H         -5.87348        1.85147       -1.64722
