38
COMP64_400003.log	Energy: -1332152.2785988
C          0.17404        0.85890       -0.03831
C         -1.09545        0.15882        0.01637
C         -2.16984        0.18519       -0.85952
O         -2.37038        1.00344       -1.89652
C         -3.08842       -0.86224       -0.57404
S         -4.60485       -1.34513       -1.25356
C         -4.73815       -2.61436       -0.06426
H         -5.59593       -3.27395       -0.07836
C         -3.68379       -2.65745        0.80092
O         -3.47380       -3.50633        1.83460
C         -2.72271       -1.64682        0.49719
S         -1.23045       -1.14788        1.19460
C          1.41797        0.30385       -0.00992
C          2.07716       -0.99993       -0.11547
O          1.65496       -2.12133       -0.20600
N          3.49295       -0.62442       -0.10937
C          4.62789       -1.44843       -0.15963
O          5.74885       -0.99691       -0.13924
O          4.30377       -2.72831       -0.22993
C          5.41246       -3.62934       -0.28421
C          3.64380        0.75943       -0.03906
H          4.63621        1.18594       -0.04978
C          2.42205        1.32537        0.02542
C          1.77644        2.62718        0.02930
O          2.20714        3.74962        0.00435
N          0.35785        2.27328        0.00417
C         -0.66089        3.22285        0.09608
O         -1.73572        3.12780       -0.46527
O         -0.31827        4.23156        0.86879
C         -1.24876        5.31884        0.92143
H         -2.04778        1.89177       -1.63677
H         -4.20614       -4.13131        1.89044
H          4.96773       -4.61905       -0.37219
H          6.00938       -3.55322        0.62739
H          6.04142       -3.40878       -1.14933
H         -0.77915        6.06117        1.56384
H         -2.19754        4.98248        1.34369
H         -1.41410        5.72369       -0.07901
