62
COMP85_000013.log	Energy: -1159095.8125898
C         -1.83207        0.10783        0.18890
C         -3.31107        0.02537        0.26565
C         -3.97712       -1.07019       -0.28383
C         -5.36526       -1.11218       -0.19277
N         -6.24635       -2.06800       -0.66071
H         -5.98703       -2.90060       -1.16186
C         -7.54067       -1.69251       -0.35121
C         -8.74341       -2.34338       -0.62250
C         -9.91391       -1.73588       -0.18994
H        -10.86574       -2.22031       -0.38633
C         -9.89329       -0.51199        0.49591
C         -8.69239        0.12955        0.76182
C         -7.50059       -0.46035        0.33739
C         -6.10454       -0.08743        0.43656
C         -5.42566        1.00156        0.98366
C         -4.04439        1.05302        0.89378
C         -1.03945       -1.02998        0.37786
C          0.34352       -0.97378        0.29152
C          0.97586        0.24085        0.01080
C          2.37903        0.65700       -0.04510
C          2.34669        2.14761       -0.28689
O          3.27363        2.88517       -0.50865
N          0.98424        2.52627       -0.32467
C          0.48207        3.81844       -0.52621
O         -0.68836        4.05528       -0.71533
O          1.43748        4.73663       -0.46297
C          0.99640        6.07669       -0.68455
C          0.16702        1.38420       -0.13946
C         -1.21379        1.33797       -0.06690
C          3.55116       -0.03959        0.04004
C          3.61368       -1.53127       -0.17733
O          2.72364       -2.27384       -0.50983
N          4.96948       -1.90752       -0.03623
C          5.49851       -3.19578       -0.18548
O          6.68334       -3.42213       -0.26793
O          4.54907       -4.12242       -0.20171
C          5.01923       -5.45859       -0.38281
C          5.75660       -0.76414        0.24527
C          7.11698       -0.71531        0.50906
C          7.66849        0.51984        0.84031
H          8.73326        0.58322        1.04315
C          6.87673        1.66169        0.91860
C          5.51553        1.60002        0.64558
C          4.93615        0.38018        0.28411
H         -3.42498       -1.85313       -0.79572
H         -8.76576       -3.29131       -1.15183
H        -10.82762       -0.06491        0.82024
H         -8.67774        1.07763        1.29185
H         -5.97105        1.79981        1.47871
H         -3.51034        1.88826        1.33568
H         -1.51378       -1.97671        0.61660
H          0.92432       -1.87133        0.43349
H          1.89888        6.68356       -0.62913
H          0.28068        6.37715        0.08401
H          0.52946        6.17008       -1.66747
H         -1.79941        2.23032       -0.23194
H          4.12360       -6.07794       -0.36689
H          5.69916       -5.74030        0.42419
H          5.53598       -5.55615       -1.34022
H          7.72239       -1.60783        0.45415
H          7.32207        2.61417        1.18697
H          4.91553        2.49485        0.69384
