34
COMP72_300001.log	Energy: -1642800.6876882
C          0.84504        1.17925        0.34543
C         -0.43177        0.49094        0.51354
C         -0.73974       -0.51156        1.40587
C          0.20531       -1.04075        2.33697
N          0.96482       -1.46058        3.10489
C         -2.09595       -0.93753        1.32950
H         -2.51605       -1.69979        1.97471
C         -2.81105       -0.25642        0.38336
S         -1.81294        0.90278       -0.43770
C         -4.21340       -0.41672        0.02456
S         -4.98159       -1.97322        0.14117
C         -6.47916       -1.34408       -0.39796
H         -7.34986       -1.97793       -0.49068
C         -6.39175       -0.00413       -0.67441
C         -7.49610        0.77459       -1.14241
N         -8.38696        1.41175       -1.52137
C         -5.08916        0.52981       -0.42996
H         -4.83750        1.57460       -0.56743
C          2.08794        0.65935        0.06510
C          2.38960       -0.76551       -0.25775
O          1.53958       -1.63297       -0.32578
C          3.82272       -1.03779       -0.51484
C          4.32770       -2.27755       -0.78492
H          3.77547       -3.20526       -0.84539
S          6.02738       -2.22322       -1.02414
C          6.08088       -0.52589       -0.76653
H          7.00892        0.02695       -0.81661
C          4.83848       -0.02427       -0.50401
C          4.53941        1.39911       -0.24099
O          5.38333        2.27589       -0.25021
C          3.10515        1.67294        0.03631
C          2.61796        2.92373        0.28071
H          3.18654        3.84355        0.30510
S          0.93161        2.90063        0.56556
