28
COMP52_000000.log	Energy: -1405774.2735545
C         -0.73150        0.11476        0.20234
C          0.67302       -0.24888        0.26000
C          1.23016       -1.44528        0.63132
H          0.64121       -2.29586        0.95610
C          2.64780       -1.44038        0.58729
H          3.26220       -2.28588        0.87541
C          3.17319       -0.24151        0.17959
S          1.90735        0.89307       -0.18308
C          4.57012        0.13328        0.02320
S          5.77818       -1.06681       -0.33014
C          7.03104        0.11705       -0.33721
H          8.05510       -0.17738       -0.52056
C          6.54506        1.36752       -0.09681
H          7.16745        2.25361       -0.05971
C          5.13699        1.37845        0.11087
H          4.56720        2.27219        0.33999
C         -1.30511        1.35685        0.30336
H         -0.75507        2.27706        0.46300
N         -2.66540        1.40372        0.21281
C         -3.15527        0.20807        0.04573
S         -1.97898       -1.07084       -0.02956
C         -4.57533       -0.07886       -0.07599
S         -5.76286        1.19014       -0.00870
C         -6.98467       -0.00391       -0.22248
H         -8.03225        0.25861       -0.26128
C         -6.42099       -1.24030       -0.32638
H         -6.96679       -2.16498       -0.46671
N         -5.05534       -1.27907       -0.24303
