35
COMP42_130003.log	Energy: -1598751.7757422
C         -1.30979        1.71123        0.09750
C          0.11191        1.43676        0.01219
C          1.12406        2.36038       -0.01928
F          0.91573        3.67229        0.02415
C          2.43430        1.82394       -0.08724
C          3.60447        2.63805       -0.09715
N          4.54884        3.30959       -0.10922
C          2.40637        0.44207       -0.10093
S          0.79224       -0.16501       -0.05322
C          3.53813       -0.47065       -0.18155
S          4.83114       -0.19223       -1.29299
C          5.66122       -1.61574       -0.80586
H          6.60909       -1.89549       -1.24111
C          4.96739       -2.27082        0.16040
F          5.36376       -3.39748        0.73501
C          3.74569       -1.63505        0.53371
C          2.89430       -2.13856        1.56046
N          2.21386       -2.55752        2.39978
C         -2.38750        0.86366        0.05095
C         -2.61346       -0.58819       -0.09969
O         -1.80449       -1.47677       -0.18797
N         -4.02920       -0.74017       -0.07579
C         -4.72116       -1.97912       -0.13133
O         -5.73695       -2.19473        0.46957
O         -4.09104       -2.81840       -0.94243
C         -4.66276       -4.12794       -1.01045
C         -4.72114        0.50329        0.09245
O         -5.90992        0.65450        0.11308
C         -3.63832        1.50930        0.17354
C         -3.55403        2.85578        0.31279
H         -4.34750        3.58257        0.41985
S         -1.90300        3.34984        0.29691
H         -3.99753       -4.69871       -1.65600
H         -5.66760       -4.07859       -1.43554
H         -4.71131       -4.57491       -0.01525
