71
COMP86_000023.log	Energy: -1292709.9582806
C          1.18595        0.53894       -0.38919
C          2.66516        0.55279       -0.48407
C          3.40889       -0.54891       -0.02931
C          4.78534       -0.53692       -0.14280
C          5.79713       -1.61144        0.27998
O          5.62802       -2.04462        1.60870
C          5.68230       -1.03569        2.59422
O          5.78682       -2.75346       -0.51872
C          4.58856       -3.50357       -0.53210
C          7.12189       -0.90817        0.00705
C          8.39676       -1.38939        0.23670
C          9.48200       -0.58395       -0.11524
H         10.49451       -0.93695        0.05611
C          9.27628        0.67049       -0.68912
C          7.98640        1.14998       -0.91955
C          6.90872        0.34898       -0.56387
C          5.45447        0.58023       -0.65792
C          4.73397        1.67850       -1.10617
C          3.34319        1.65190       -1.02405
C          0.47301       -0.63993       -0.63510
C         -0.90790       -0.68899       -0.52394
C         -1.61761        0.45871       -0.16118
C         -3.04563        0.76266       -0.05318
C         -3.12309        2.24415        0.22535
O         -4.10164        2.91018        0.45056
N         -1.78936        2.71773        0.28369
C         -1.37854        4.03219        0.53959
O         -0.22059        4.34819        0.68835
O         -2.40131        4.87516        0.58266
C         -2.04800        6.23162        0.85709
C         -0.89240        1.64985        0.03321
C          0.48758        1.70687       -0.05859
C         -4.15719       -0.03013       -0.10241
C         -4.08040       -1.52394        0.10350
O         -3.11372       -2.18932        0.37946
N         -5.40499       -2.01271        0.03322
C         -5.81465       -3.34168        0.20250
O         -6.97008       -3.66613        0.34917
O         -4.79190       -4.18502        0.15934
C         -5.13760       -5.55655        0.35775
C         -6.29974       -0.94002       -0.19959
C         -7.67071       -1.00673       -0.39376
C         -8.34035        0.17760       -0.69206
H         -9.41524        0.14911       -0.84295
C         -7.65339        1.38226       -0.80673
C         -6.27970        1.43659       -0.60249
C         -5.58234        0.27006       -0.27476
H          2.90307       -1.38475        0.44514
H          5.54729       -1.53849        3.55343
H          4.88646       -0.29117        2.46313
H          6.65227       -0.52163        2.59009
H          4.83472       -4.45551       -1.00596
H          3.81100       -3.00406       -1.12492
H          4.21744       -3.68836        0.48119
H          8.54147       -2.36969        0.67998
H         10.13145        1.28291       -0.95981
H          7.83499        2.12809       -1.36732
H          5.23714        2.55025       -1.51441
H          2.77237        2.49859       -1.39403
H          1.00791       -1.53534       -0.93610
H         -1.42596       -1.61655       -0.70884
H         -2.99173        6.77469        0.85467
H         -1.37708        6.61678        0.08598
H         -1.56045        6.31146        1.83125
H          1.00981        2.62984        0.14611
H         -4.19368       -6.09643        0.30181
H         -5.82479       -5.89549       -0.42066
H         -5.60390       -5.69622        1.33557
H         -8.19442       -1.94754       -0.31142
H         -8.18989        2.29342       -1.05088
H         -5.75933        2.37790       -0.68046
