42
COMP46_000021.log	Energy: -980621.5583834
C          2.25353        1.02236        0.13435
C          0.79061        1.11228        0.07132
C          0.01190       -0.02709        0.33947
C         -1.36148        0.06495        0.25183
C         -2.41669       -1.02584        0.49256
O         -2.16074       -2.23080       -0.17845
C         -1.87467       -2.12250       -1.55869
O         -2.59643       -1.34289        1.83851
C         -1.47986       -1.90389        2.50258
C         -3.69175       -0.31407        0.05221
C         -4.96850       -0.83757       -0.02117
C         -6.00712        0.00542       -0.42179
H         -7.01910       -0.38185       -0.49317
C         -5.75664        1.34230       -0.73164
C         -4.46540        1.86462       -0.65643
C         -3.43328        1.02125       -0.26476
C         -1.98391        1.25897       -0.13599
C         -1.22558        2.39441       -0.38563
C          0.15960        2.31446       -0.27324
C          3.09315       -0.02713       -0.12840
C          2.98704       -1.43122       -0.60951
O          2.02274       -2.11255       -0.87190
N          4.31695       -1.86175       -0.70783
H          4.55952       -2.79525       -1.00793
C          5.27964       -0.91111       -0.34168
O          6.47403       -1.07861       -0.34883
C          4.47243        0.28114        0.02733
C          4.71606        1.55572        0.41827
H          5.66289        2.04482        0.60002
S          3.22087        2.40067        0.61208
H          0.49036       -0.97209        0.56884
H         -1.86122       -3.14245       -1.94634
H         -0.89637       -1.66045       -1.73475
H         -2.64951       -1.54887       -2.08516
H         -1.86007       -2.29784        3.44685
H         -0.71868       -1.14204        2.71563
H         -1.03471       -2.71769        1.92160
H         -5.14904       -1.87896        0.22585
H         -6.57668        1.98448       -1.03909
H         -4.27782        2.90584       -0.90313
H         -1.69335        3.32626       -0.68881
H          0.75987        3.19152       -0.49953
