37
COMP21_000300.log	Energy: -1368784.5970004
C          2.04543        0.13507        0.01625
C          0.59173       -0.03158        0.01432
C         -0.31888        0.87514       -0.43494
H         -0.03969        1.81118       -0.90133
C         -1.68023        0.46728       -0.25105
C         -2.84107        1.17942       -0.59369
C         -2.76478        2.53746       -1.23745
C         -4.04225        0.54387       -0.30918
S         -5.63908        1.19352       -0.64084
C         -6.38807       -0.22331        0.03477
H         -7.46766       -0.29225        0.05735
C         -5.50529       -1.14065        0.48313
H         -5.81141       -2.07718        0.93247
C         -4.12904       -0.74008        0.30165
C         -2.96822       -1.44306        0.64928
C         -2.97870       -2.79836        1.30213
C         -1.76330       -0.80743        0.35736
S         -0.17742       -1.47196        0.66880
C          2.92600       -0.97034       -0.25659
N          2.54020       -2.21913       -0.51809
S          3.89088       -3.08277       -0.76276
N          5.01633       -1.93095       -0.55924
C          4.35371       -0.80653       -0.28331
C          4.94321        0.46163       -0.04215
H          6.01879        0.58518       -0.07138
C          4.10442        1.50620        0.22562
C          4.67632        2.80038        0.47671
N          5.16641        3.83162        0.67145
C          2.66382        1.34864        0.27098
C          1.90108        2.51305        0.62036
N          1.31954        3.47522        0.90206
H         -1.99151        3.15414       -0.76924
H         -3.71144        3.07751       -1.14881
H         -2.52890        2.45350       -2.30490
H         -3.98762       -3.19818        1.41632
H         -2.52202       -2.75401        2.29820
H         -2.40131       -3.51866        0.70997
