39
COMP47_410003.log	Energy: -1625956.1917563
C         -2.25527       -1.61018       -0.07167
C         -0.81192       -1.53548       -0.04519
C          0.07231       -2.57711       -0.15163
F         -0.28766       -3.86332       -0.30284
C          1.44223       -2.23913       -0.10098
O          2.44263       -3.14616       -0.19418
C          1.62469       -0.88473        0.05268
S          0.09325       -0.05802        0.13435
C          2.84977       -0.11496        0.13950
C          4.09711       -0.63366        0.14572
C          5.30481        0.17250        0.16258
C          5.51304        1.40512       -0.40910
O          4.64074        2.13978       -1.13427
C          6.84483        1.87618       -0.20368
F          7.24075        3.05445       -0.68091
C          7.63402        1.02345        0.49569
H          8.66714        1.16719        0.77472
S          6.76726       -0.40439        0.92302
C         -3.21069       -0.62553        0.00031
C         -3.24157        0.84355        0.13581
O         -2.33253        1.62249        0.26964
N         -4.63006        1.17922        0.12683
C         -5.15447        2.48735        0.28740
O         -6.15791        2.72822        0.90028
O         -4.39053        3.36788       -0.34726
C         -4.78179        4.73251       -0.17853
C         -5.48130        0.03470        0.01807
O         -6.67942        0.04641       -0.03881
C         -4.54092       -1.10479       -0.06037
C         -4.64388       -2.45027       -0.18146
H         -5.53210       -3.06317       -0.24765
S         -3.07052       -3.15916       -0.22166
H          2.05561       -4.02219       -0.32504
H          2.72036        0.96093        0.24915
H          4.22319       -1.71263        0.12700
H          3.90821        1.56675       -1.40338
H         -4.02997        5.31411       -0.70941
H         -4.79632        4.99570        0.88145
H         -5.77313        4.89756       -0.60631
