35
COMP27_420400.log	Energy: -1969988.0478948
C         -3.05718       -0.45790       -0.25655
C         -1.70700        0.11082       -0.34708
C         -1.34326        1.35662       -0.76836
Cl        -2.43273        2.55154       -1.39518
C          0.05774        1.61646       -0.68480
O          0.65304        2.76797       -1.05771
C          0.76335        0.54971       -0.18527
S         -0.30940       -0.77368        0.16978
C          2.19645        0.51293        0.01430
C          2.89545       -0.49928        0.56526
C          4.34669       -0.52502        0.66757
C          5.26263       -0.04685       -0.23963
O          5.00098        0.54339       -1.42384
C          6.61309       -0.27253        0.17372
Cl         7.96716        0.22424       -0.78048
C          6.71132       -0.91815        1.36591
H          7.61548       -1.19559        1.88791
S          5.15849       -1.27183        2.01777
C         -4.03610        0.11412        0.62486
N         -3.84439        1.15697        1.42471
S         -5.25290        1.40646        2.20928
N         -6.15225        0.20193        1.57086
C         -5.36471       -0.43747        0.71281
C         -5.72795       -1.57315       -0.06988
H         -6.72746       -1.98901        0.00480
C         -4.77965       -2.09837       -0.88744
O         -4.95343       -3.17611       -1.70013
C         -3.44153       -1.54874       -0.99069
O         -2.58643       -2.14231       -1.84101
H         -0.02425        3.38955       -1.35982
H          2.71049        1.42379       -0.28842
H          2.36591       -1.37065        0.95071
H          4.06109        0.42101       -1.62430
H         -5.85492       -3.51192       -1.62739
H         -3.04352       -2.88578       -2.26255
