33
COMP22_340400.log	Energy: -1460378.3616172
C         -2.22414       -0.15687        0.17736
C         -0.82128       -0.52649       -0.02474
C         -0.32834       -1.73682       -0.46744
C         -1.09037       -2.85489       -0.90921
N         -1.61287       -3.81108       -1.30929
C          1.09835       -1.77739       -0.50902
O          1.82443       -2.84273       -0.91485
C          1.68774       -0.60772       -0.09929
S          0.46652        0.56151        0.32706
C          3.10634       -0.31923       -0.03487
S          4.32511       -1.47431       -0.51874
C          5.59850       -0.39954       -0.15016
H          6.63052       -0.68620       -0.29366
C          5.13277        0.79930        0.32322
C          5.92947        1.91164        0.72033
N          6.50204        2.86088        1.06374
C          3.70257        0.84298        0.38934
O          2.98385        1.90200        0.82067
C         -2.75578        1.09395       -0.29281
N         -2.07320        2.04028       -0.92634
S         -3.12635        3.24399       -1.24842
N         -4.48412        2.60996       -0.60148
C         -4.14734        1.42350       -0.10816
C         -5.02641        0.51538        0.55148
H         -6.07330        0.76834        0.68292
C         -4.49605       -0.65050        1.00104
O         -5.18261       -1.62325        1.65715
C         -3.09724       -0.99149        0.83192
O         -2.67454       -2.15185        1.35700
H          1.23517       -3.56168       -1.18449
H          3.57350        2.63122        1.05832
H         -6.11433       -1.38558        1.73529
H         -3.44073       -2.63382        1.70307
