38
COMP67_120000.log	Energy: -1799601.7336598
C          3.21508       -0.30111        0.35178
C          1.81690       -0.64288        0.13670
C          1.25658       -1.75556       -0.44062
Cl         2.12079       -3.07645       -1.13218
C         -0.15635       -1.68010       -0.50587
F         -0.87873       -2.66444       -1.04048
C         -0.69385       -0.52695        0.00590
S          0.58704        0.49274        0.57585
C         -2.07507       -0.09583        0.11995
C         -3.13914       -0.82391       -0.26933
C         -4.52160       -0.39680       -0.16086
C         -5.06311        0.76718        0.31696
F         -4.34354        1.77760        0.80254
C         -6.48273        0.82569        0.25695
Cl        -7.38012        2.19575        0.80016
C         -7.02524       -0.30594       -0.27078
H         -8.07210       -0.52029       -0.42883
S         -5.80669       -1.44221       -0.69526
C          3.86428        0.84705       -0.00223
C          3.70394        2.09020       -0.74986
O          2.75375        2.62066       -1.28894
N          5.01813        2.64828       -0.72256
C          5.33376        3.91815       -1.33681
C          5.89337        1.83344       -0.03968
H          6.93624        2.10845        0.05427
C          5.22978        0.74018        0.41780
C          5.40297       -0.53635        1.09990
O          6.34487       -1.05666        1.65996
N          4.10830       -1.13308        1.01315
C          3.80527       -2.35486        1.72931
H         -2.22843        0.88783        0.55186
H         -2.98324       -1.80653       -0.70295
H          4.41638        4.28459       -1.80071
H          6.10304        3.80064       -2.10619
H          5.67247        4.64363       -0.59071
H          4.54389       -2.45404        2.52676
H          3.87035       -3.22940        1.07730
H          2.80186       -2.29802        2.15825
