37
COMP47_230002.log	Energy: -2028443.2402083
C          3.07049        0.94951       -0.15622
C          1.64870        1.25173       -0.09238
C          1.02698        2.48726        0.00816
C          1.69093        3.74535        0.10159
N          2.21326        4.77787        0.17729
C         -0.39605        2.38747        0.02109
Cl        -1.41105        3.77762        0.13884
C         -0.86236        1.10105       -0.06962
S          0.46414       -0.01277       -0.15559
C         -2.24860        0.67738       -0.08459
C         -2.65342       -0.59640       -0.23475
C         -4.02416       -1.08044       -0.25514
C         -5.22593       -0.51332        0.09612
Cl        -5.43533        1.07477        0.73705
C         -6.34782       -1.38593       -0.08843
C         -7.70075       -1.03417        0.20429
N         -8.80261       -0.76195        0.43718
C         -5.97854       -2.61003       -0.57746
H         -6.62946       -3.44204       -0.80587
S         -4.29131       -2.71080       -0.81353
C          3.71718       -0.26281       -0.09960
C          3.36524       -1.69915        0.06526
O          2.29780       -2.25309        0.16974
N          4.61090       -2.34342        0.09253
O          4.70540       -3.69820        0.05662
C          4.85161       -4.22893        1.37725
C          5.73358       -1.51680       -0.10351
O          6.87862       -1.88182       -0.14711
C          5.12913       -0.16547       -0.20542
C          5.58580        1.10221       -0.35129
H          6.60435        1.45193       -0.45054
S          4.27236        2.21393       -0.36008
H         -2.97025        1.47831        0.02576
H         -1.90253       -1.37392       -0.37110
H          4.93291       -5.30678        1.23505
H          3.97110       -3.99462        1.98314
H          5.76184       -3.84311        1.84545
