42
COMP62_230003.log	Energy: -1978835.3939897
C          1.65717        0.74355       -0.15463
C          0.24971        0.74930        0.22185
C         -0.40377        1.55689        1.11380
Cl         0.34813        2.81175        2.02160
C         -1.78744        1.24290        1.24605
C         -2.67310        1.96531        2.10000
N         -3.38767        2.55197        2.79891
C         -2.16496        0.18381        0.43944
S         -0.82407       -0.41856       -0.45407
C         -3.48217       -0.43081        0.32503
S         -4.44564       -0.74308        1.72450
C         -5.70254       -1.44561        0.79215
H         -6.60366       -1.81407        1.26101
C         -5.39985       -1.44929       -0.53405
Cl        -6.44083       -2.07377       -1.75829
C         -4.12266       -0.86916       -0.81886
C         -3.59649       -0.74017       -2.13903
N         -3.17164       -0.64535       -3.21318
C          2.51441       -0.30532       -0.13995
C          2.57468       -1.72513        0.22007
O          1.72076       -2.50007        0.56233
N          3.98854       -2.01969        0.04768
C          4.66680       -3.23810        0.22768
O          5.85644       -3.33859        0.04766
O          3.84552       -4.20183        0.60456
C          4.46405       -5.47654        0.80675
C          4.69296       -0.88007       -0.35235
H          5.76264       -0.94561       -0.48928
C          3.82994        0.14697       -0.48094
C          3.78086        1.58310       -0.75553
O          4.62095        2.35931       -1.12123
N          2.37580        1.89878       -0.52034
C          1.73549        3.08396       -0.95222
O          0.60125        3.10661       -1.35935
O          2.54557        4.11988       -0.83085
C          2.01350        5.35802       -1.31328
H          3.65610       -6.13827        1.11352
H          5.22661       -5.40982        1.58546
H          4.92112       -5.82861       -0.12041
H          2.80664        6.08774       -1.16119
H          1.11996        5.63005       -0.74744
H          1.76300        5.27492       -2.37292
