43
COMP46_000000.log	Energy: -910934.6226786
C         -1.79243        1.18408        0.07126
C         -0.32810        1.12368       -0.00797
C          0.33480       -0.09587        0.20079
C          1.71358       -0.13850        0.12192
C          2.62219       -1.34548        0.29498
C          2.48271       -1.95514        1.69917
C          2.33394       -2.40798       -0.77987
C          3.99121       -0.71171        0.09477
C          5.23914       -1.31460        0.13914
C          6.37556       -0.53561       -0.08077
H          7.35824       -0.99666       -0.04791
C          6.26205        0.83059       -0.34171
C          5.01117        1.44056       -0.38763
C          3.87975        0.66130       -0.16744
C          2.45642        1.01735       -0.15248
C          1.81080        2.23163       -0.36140
C          0.42449        2.27548       -0.29226
C         -2.75075        0.20357       -0.00467
C         -2.83265       -1.26904       -0.20635
O         -1.96409       -2.10720       -0.32362
N         -4.20412       -1.56071       -0.22691
C         -4.73517       -2.89524       -0.39720
C         -5.02534       -0.44309       -0.03952
O         -6.23331       -0.47071       -0.01159
C         -4.08252        0.69118        0.10173
C         -4.17910        2.03022        0.27287
H         -5.06384        2.64265        0.37655
S         -2.59810        2.72421        0.31343
H         -0.23641       -0.99591        0.40020
H          1.47468       -2.35866        1.84367
H          2.67021       -1.20403        2.47259
H          3.19791       -2.77413        1.83381
H          1.31542       -2.79633       -0.67239
H          3.03358       -3.24600       -0.68636
H          2.43747       -1.98342       -1.78299
H          5.33649       -2.37853        0.34020
H          7.15728        1.42145       -0.51092
H          4.92418        2.50458       -0.58999
H          2.37118        3.13475       -0.58496
H         -0.07836        3.22015       -0.47977
H         -3.89113       -3.57589       -0.51171
H         -5.37151       -2.93728       -1.28476
H         -5.32824       -3.18026        0.47564
