52
COMP97_400000.log	Energy: -1479123.9578707
C          1.07848        0.09426       -0.18737
C         -0.37010        0.29916       -0.36436
C         -1.02627        1.08718       -1.26766
H         -0.51853        1.76892       -1.93984
C         -2.43515        0.93790       -1.21699
O         -3.30795        1.61068       -2.01173
C         -2.86667        0.02332       -0.27879
S         -1.49580       -0.66103        0.54073
C         -4.20785       -0.37372        0.10420
C         -5.35174        0.02515       -0.49437
C         -6.67579       -0.33783       -0.01685
C         -7.10046       -0.50055        1.28380
O         -6.34405       -0.33879        2.39724
C         -8.48292       -0.82859        1.40029
H         -8.97226       -0.98886        2.35272
C         -9.09552       -0.90075        0.18763
H        -10.13141       -1.13466       -0.01501
S         -8.01489       -0.56545       -1.11122
C          1.51383       -1.25992       -0.21333
C          2.83473       -1.60373       -0.11689
C          3.21866       -3.04257       -0.16480
O          2.39034       -3.92384       -0.27575
N          4.58392       -3.32432       -0.07427
C          5.01591       -4.72028       -0.10996
C          5.59572       -2.37056        0.04843
O          6.75938       -2.71345        0.11810
C          5.18342       -0.94215        0.08964
C          6.14153        0.03810        0.21294
H          7.18576       -0.24773        0.27520
C          5.75316        1.38665        0.26118
C          4.42227        1.73884        0.18759
C          4.07051        3.17712        0.26125
O          4.91489        4.04777        0.34886
N          2.71024        3.47202        0.24014
C          2.30421        4.86953        0.37932
C          1.66748        2.54276        0.13884
O          0.52470        2.94875        0.20197
C          2.03454        1.10167       -0.02922
C          3.41375        0.75395        0.05350
C          3.81677       -0.59930        0.00726
H         -2.83832        2.31677       -2.47059
H         -4.26761       -1.08854        0.92426
H         -5.29499        0.66334       -1.37141
H         -5.52147        0.10493        2.14262
H          0.78326       -2.05213       -0.33906
H          4.12881       -5.34271       -0.19793
H          5.56093       -4.95908        0.80524
H          5.67951       -4.87941       -0.96211
H          6.49092        2.17523        0.36046
H          3.20648        5.47633        0.38362
H          1.75054        5.00506        1.31066
H          1.65688        5.14961       -0.45327
