28
COMP52_200200.log	Energy: -2559330.3139966
C          0.73084        0.21495        0.42761
C         -0.64502       -0.26198        0.49130
C         -1.15190       -1.33440        1.17870
Cl        -0.19759       -2.35845        2.19757
C         -2.54845       -1.52640        1.01610
H         -3.10734       -2.30450        1.52134
C         -3.10512       -0.59101        0.18621
S         -1.91081        0.51305       -0.41047
C         -4.50063       -0.45493       -0.20732
S         -5.51760       -1.85476       -0.36769
C         -6.87475       -0.89275       -0.80678
H         -7.83421       -1.34221       -1.01808
C         -6.54410        0.42797       -0.83873
Cl        -7.66558        1.68683       -1.24408
C         -5.18869        0.69226       -0.49653
H         -4.76338        1.68713       -0.44337
C          1.25035        1.42778        0.80612
Cl         0.32465        2.70012        1.51574
N          2.57930        1.61845        0.61864
C          3.11049        0.55042        0.08925
S          2.01895       -0.75370       -0.22122
C          4.52803        0.43955       -0.21841
S          5.62912        1.74001        0.10476
C          6.89858        0.76608       -0.52500
H          7.92090        1.11019       -0.57634
C          6.39406       -0.43786       -0.91895
Cl         7.34320       -1.70620       -1.60795
N          5.05897       -0.62720       -0.74902
