30
COMP62_310001.log	Energy: -1240662.9533384
C         -2.32354       -0.61040       -0.26303
C         -1.00655       -0.01543       -0.27598
C         -0.68961        1.31335       -0.46690
C         -1.60721        2.34271       -0.82393
N         -2.32965        3.18307       -1.16100
C          0.71385        1.52210       -0.38811
F          1.25141        2.72764       -0.54982
C          1.46083        0.40072       -0.15573
S          0.40825       -0.97777       -0.01270
C          2.90028        0.30637       -0.02811
S          3.95491        1.69055       -0.12402
C          5.35098        0.73112        0.11566
H          6.33219        1.18382        0.13516
C          5.05324       -0.59744        0.26752
C          6.01300       -1.63121        0.47894
N          6.79285       -2.47075        0.64925
C          3.64844       -0.81847        0.18202
F          3.11740       -2.03306        0.30039
C         -3.49234       -0.12290        0.24119
C         -4.04421        0.96628        1.05527
O         -3.56381        1.97369        1.52167
N         -5.39302        0.55214        1.23310
H         -6.05776        1.11098        1.74544
C         -5.64833       -0.66733        0.64887
H         -6.62265       -1.12963        0.73263
C         -4.51742       -1.10705        0.03732
C         -3.93417       -2.25936       -0.65223
O         -4.39393       -3.29698       -1.07011
N         -2.56306       -1.88674       -0.75967
H         -1.93308       -2.39678       -1.36193
