51
COMP76_000013.log	Energy: -1434318.5366359
C          0.72569       -2.13496       -0.13643
C          2.10281       -1.61653       -0.19407
C          2.47086       -0.51659        0.59308
C          3.77425       -0.06253        0.54917
C          4.40469        1.09040        1.29411
H          3.91503        2.04169        1.05247
H          4.33288        0.96182        2.38118
C          5.83621        1.05075        0.81174
C          6.90231        1.87040        1.15160
C          8.14540        1.64013        0.56270
H          8.98820        2.27480        0.82040
C          8.31701        0.60284       -0.35550
C          7.25034       -0.22397       -0.69761
C          6.01069        0.00498       -0.10839
C          4.72758       -0.69058       -0.26939
C          4.37230       -1.78498       -1.04906
C          3.05992       -2.24325       -1.00372
C         -0.48416       -1.47630       -0.16298
C         -0.69475       -0.03342       -0.43062
O          0.15876        0.71098       -0.86930
C         -2.08803        0.44142       -0.16657
C         -2.46576        1.76036       -0.12670
C         -1.60595        2.98110       -0.11833
O         -0.61737        3.11932        0.55337
O         -2.13158        3.92575       -0.90933
C         -1.41207        5.16091       -0.94142
S         -4.16857        1.92217        0.06261
C         -4.38553        0.21660        0.16534
C         -5.73403       -0.32294        0.50612
O         -5.94580       -1.19150        1.31015
O         -6.68428        0.35149       -0.15847
C         -8.02683       -0.02810        0.15426
C         -3.19557       -0.45047        0.00527
C         -3.01862       -1.92944       -0.06315
O         -3.94429       -2.70979       -0.15769
C         -1.60383       -2.36842       -0.03340
C         -1.23441       -3.67603        0.07686
H         -1.89471       -4.52756        0.16785
S          0.47056       -3.84279        0.06248
H          1.73398       -0.02953        1.22357
H          6.77485        2.67964        1.86572
H          9.29109        0.43990       -0.80701
H          7.38657       -1.02995       -1.41345
H          5.09858       -2.27674       -1.68956
H          2.76541       -3.08585       -1.62332
H         -1.98516        5.81338       -1.59852
H         -0.40713        5.00020       -1.33805
H         -1.33927        5.58887        0.06119
H         -8.66014        0.60336       -0.46715
H         -8.23284        0.14095        1.21394
H         -8.18578       -1.08330       -0.07798
