50
COMP87_130001.log	Energy: -1530559.5174734
C         -0.63489        0.56274        0.15474
C          0.81611        0.77709        0.19431
C          1.51825        1.94196        0.44162
C          0.94046        3.20870        0.74781
N          0.47972        4.24603        0.98370
C          2.92634        1.73975        0.39556
F          3.76900        2.74751        0.61866
C          3.32509        0.46098        0.12001
S          1.90889       -0.52654       -0.09937
C          4.64936       -0.11660       -0.01330
C          5.80166        0.57066        0.10168
C          7.12682       -0.00674       -0.03649
C          7.52464       -1.28916       -0.30473
F          6.68258       -2.30308       -0.49750
C          8.93599       -1.48084       -0.36799
C          9.55704       -2.73758       -0.63307
N         10.06200       -3.75787       -0.84860
C          9.61114       -0.30929       -0.14094
H         10.68214       -0.16607       -0.12936
S          8.54119        0.99335        0.14319
C         -1.18448       -0.65197        0.58066
C         -2.55662       -0.88128        0.55329
C         -3.42111        0.11782        0.10440
C         -4.87984        0.22620       -0.11463
C         -5.07976        1.61713       -0.70248
O         -6.09803        2.20059       -1.01287
N         -3.82983        2.18093       -0.78919
H         -3.69695        3.12997       -1.10228
C         -2.83996        1.32774       -0.33283
C         -1.48179        1.57161       -0.32395
C         -5.90886       -0.63365        0.13351
C         -5.74691       -1.91285        0.95126
O         -4.76370       -2.37952        1.49161
N         -6.99280       -2.47747        1.02829
H         -7.15325       -3.33830        1.52704
C         -7.94440       -1.74588        0.32980
C         -9.27975       -2.06176        0.15997
C        -10.05368       -1.20107       -0.61678
H        -11.10634       -1.41989       -0.76823
C         -9.48675       -0.07226       -1.20083
C         -8.14014        0.23518       -1.01488
C         -7.34109       -0.59908       -0.22889
H          4.68121       -1.18129       -0.22148
H          5.76992        1.63530        0.30978
H         -0.53485       -1.42894        0.97196
H         -2.95288       -1.82072        0.90470
H         -1.08853        2.51139       -0.69440
H         -9.70544       -2.95255        0.61090
H        -10.09879        0.58566       -1.80893
H         -7.71865        1.12149       -1.46163
