31
COMP17_400000.log	Energy: -1276656.8406696
C         -3.22084       -0.70103        0.01375
C         -1.94831       -0.04380       -0.11165
C         -1.72877        1.27330       -0.43202
H         -2.52674        1.97673       -0.64443
C         -0.34939        1.59313       -0.48847
O          0.16071        2.81443       -0.78119
C          0.48364        0.52682       -0.22197
S         -0.45272       -0.89594        0.12970
C          1.92813        0.57134       -0.22026
C          2.75544       -0.48316       -0.06070
C          4.20127       -0.38701        0.01648
C          4.96311        0.63197        0.54760
O          4.49720        1.76144        1.13098
C          6.36708        0.39399        0.47741
H          7.10249        1.09622        0.84915
C          6.65492       -0.80557       -0.09584
H          7.63124       -1.23354       -0.27595
S          5.23751       -1.66990       -0.55362
C         -3.56436       -1.99731        0.09069
C         -5.01275       -2.23524        0.21225
C         -5.76902       -1.13556        0.22798
H         -6.84167       -1.02676        0.30195
S         -4.72848        0.30096        0.11690
O         -4.74369        1.04977        1.36686
O         -4.94100        1.01015       -1.14044
H         -0.55950        3.44601       -0.89017
H          2.34007        1.55985       -0.41438
H          2.32924       -1.48286        0.03017
H          3.54717        1.65914        1.28802
H         -2.85339       -2.81491        0.05169
H         -5.41642       -3.23937        0.27522
