44
COMP77_420000.log	Energy: -2296116.4862489
C         -1.71048       -1.48657        0.32429
C         -0.40411       -0.95418        0.69654
C         -0.06461       -0.21277        1.79141
Cl        -1.15754        0.28181        3.03715
C          1.31768        0.13255        1.85160
O          1.88896        0.86046        2.83164
C          2.03771       -0.37109        0.79526
S          0.99655       -1.25484       -0.28217
C          3.45787       -0.18684        0.58713
C          4.19175       -0.73438       -0.40211
C          5.60102       -0.45422       -0.62390
C          6.26727        0.73270       -0.42492
O          5.74320        1.89635        0.01063
C          7.65155        0.64964       -0.77427
Cl         8.72466        1.99660       -0.62413
C          8.01722       -0.57456       -1.23892
H          9.00017       -0.88622       -1.56105
S          6.68319       -1.66027       -1.26713
C         -2.87599       -0.82235        0.01942
C         -3.03940        0.65451       -0.07697
O         -2.11998        1.43396        0.11449
C         -4.40239        1.10041       -0.43441
C         -4.76672        2.41893       -0.54008
C         -3.93582        3.64792       -0.34354
S         -6.44023        2.53470       -0.96321
C         -6.66616        0.82063       -1.00478
C         -7.99598        0.22173       -1.33995
C         -5.48791        0.18890       -0.70028
C         -5.31986       -1.27412       -0.64699
O         -6.21524       -2.06966       -0.88518
C         -3.95315       -1.72121       -0.27745
C         -3.58898       -3.03410       -0.20288
H         -4.22267       -3.88967       -0.39288
S         -1.94526       -3.20666        0.24019
H          1.20362        1.15281        3.44922
H          3.94014        0.42827        1.34477
H          3.71861       -1.42336       -1.10224
H          4.77749        1.83147       -0.02580
H         -3.47541        3.64007        0.64799
H         -4.53331        4.55671       -0.45370
H         -3.11685        3.67193       -1.06806
H         -8.75749        0.99308       -1.48203
H         -8.31808       -0.45642       -0.54538
H         -7.92375       -0.37672       -2.25282
