50
COMP84_300002.log	Energy: -1452552.8949762
C          1.69165        0.08578       -0.02704
C          3.15836        0.15800       -0.03505
C          4.05450       -0.85275       -0.32066
C          3.68080       -2.17555       -0.70088
N          3.39160       -3.25649       -1.00641
C          5.40821       -0.39857       -0.23780
S          6.96045       -1.12526       -0.47645
C          7.74574        0.36906       -0.11505
H          8.82492        0.43452       -0.13314
C          6.87283        1.38402        0.17578
C          7.27312        2.71338        0.50648
N          7.58027        3.79788        0.77656
C          5.51667        0.93210        0.10146
S          3.96554        1.65586        0.34041
C          0.92116        1.13902       -0.53169
C         -0.47099        1.07581       -0.56123
C         -1.12264       -0.05902       -0.08064
C         -2.52730       -0.51794       -0.00353
C         -2.44789       -1.96840        0.45667
O         -3.30085       -2.82376        0.55713
N         -1.12304       -2.16589        0.77927
O         -0.62378       -3.36442        1.18875
C         -0.37493       -4.22631        0.06801
C         -0.31456       -1.10731        0.40221
C          1.05991       -1.06334        0.46726
C         -3.70658        0.14204       -0.16923
C         -3.78765        1.65545       -0.34548
O         -2.92991        2.48043       -0.57648
N         -5.11181        1.97091       -0.12721
O         -5.61489        3.19088       -0.49203
C         -5.48954        4.11855        0.58717
C         -5.92535        0.84054       -0.11549
C         -7.30480        0.81092       -0.11685
C         -7.91122       -0.44505       -0.11837
H         -8.99493       -0.51318       -0.12235
C         -7.14340       -1.60643       -0.12615
C         -5.74988       -1.55149       -0.12640
C         -5.11192       -0.30942       -0.11068
H          1.41117        2.01488       -0.94547
H         -1.04028        1.89836       -0.96459
H          0.03145       -5.13817        0.50576
H          0.36229       -3.78120       -0.60869
H         -1.30957       -4.44333       -0.45583
H          1.61221       -1.89381        0.88972
H         -5.95817        5.03409        0.22369
H         -4.43534        4.30073        0.81197
H         -6.01355        3.75170        1.47595
H         -7.87682        1.73126       -0.13535
H         -7.63194       -2.57508       -0.13804
H         -5.16682       -2.45896       -0.13834
