54
COMP92_040003.log	Energy: -1667124.9784937
C          0.05799       -0.28853        0.45974
C         -1.31431       -0.81287        0.59739
C         -1.80452       -1.54104        1.64402
H         -1.23862       -1.73663        2.54956
C         -3.15123       -1.96106        1.43918
O         -3.89362       -2.64967        2.33853
C         -3.65957       -1.58402        0.22087
S         -2.46806       -0.69231       -0.68182
C         -4.97483       -1.87582       -0.32292
S         -6.04512       -0.62372       -0.89440
C         -7.26095       -1.76618       -1.30437
H         -8.19283       -1.43898       -1.74403
C         -6.88534       -3.04189       -1.01073
H         -7.50748       -3.91204       -1.19319
C         -5.57155       -3.10550       -0.45283
O         -4.93246       -4.24772       -0.10203
C          1.09746       -1.25350        0.44109
C          2.40693       -0.89723        0.24971
C          3.45426       -1.95065        0.23911
O          3.22885       -3.12913        0.40893
N          4.75815       -1.49964        0.01772
C          5.80606       -2.50543        0.06386
O          6.37144       -2.81315        1.07092
O          6.00392       -2.98567       -1.14996
C          7.02607       -3.98557       -1.23994
C          5.16833       -0.18613       -0.23122
O          6.33531        0.06380       -0.44211
C          4.09429        0.83934       -0.20981
C          4.41761        2.15870       -0.43110
H          5.45268        2.42246       -0.61905
C          3.41071        3.13816       -0.40984
C          2.10210        2.78888       -0.15978
C          1.07236        3.85590       -0.14273
O          1.29772        5.01808       -0.40348
N         -0.20708        3.43509        0.21178
C         -1.20763        4.47311        0.39270
O         -1.29204        5.13622        1.38341
O         -1.96152        4.54157       -0.68951
C         -3.02266        5.50111       -0.62230
C         -0.62990        2.13077        0.50474
O         -1.75525        1.95475        0.91373
C          0.38702        1.05564        0.31377
C          1.73698        1.43761        0.06888
C          2.75386        0.45700        0.03497
H         -3.36206       -2.81504        3.12497
H         -5.53073       -4.99238       -0.22811
H          0.84896       -2.30233        0.56504
H          7.08275       -4.24620       -2.29528
H          6.75131       -4.85495       -0.63888
H          7.97681       -3.58000       -0.88802
H          3.64359        4.18245       -0.58764
H         -3.53373        5.43254       -1.58099
H         -2.61317        6.50178       -0.46992
H         -3.70021        5.25019        0.19647
