56
COMP82_100003.log	Energy: -1652182.7250887
C          1.61032        0.45144       -0.20476
C          3.07451        0.48677       -0.25354
C          3.91619        1.53940       -0.49991
F          3.48897        2.77866       -0.75741
C          5.29922        1.24144       -0.47198
H          6.07200        1.98462       -0.62519
C          5.52649       -0.07984       -0.19676
S          4.03467       -0.94140        0.01495
C          6.80051       -0.77003       -0.07264
S          8.18892       -0.23102       -0.97051
C          9.18465       -1.46780       -0.29832
H         10.22912       -1.56186       -0.55520
C          8.45968       -2.24634        0.54851
F          8.96925       -3.28510        1.21280
C          7.09983       -1.86547        0.69229
H          6.40214       -2.36705        1.35161
C          0.91810       -0.74361       -0.44156
C         -0.46364       -0.80671       -0.36397
C         -1.19711        0.33963       -0.04729
C         -2.63034        0.63312        0.00869
C         -2.72763        2.11756        0.26623
O         -3.71701        2.77532        0.46824
N         -1.40156        2.60462        0.34566
C         -1.01042        3.92381        0.61499
O          0.12817        4.23759        0.87196
O         -2.02841        4.76931        0.53338
C         -1.69976        6.13090        0.81469
C         -0.48890        1.54171        0.14452
C          0.89039        1.62015        0.08414
C         -3.73509       -0.16641       -0.07280
C         -3.65875       -1.65839        0.14511
O         -2.69757       -2.31800        0.45309
N         -4.97807       -2.15295        0.03796
C         -5.38777       -3.48219        0.20570
O         -6.54591       -3.80954        0.32066
O         -4.36118       -4.32172        0.19909
C         -4.70793       -5.69299        0.39867
C         -5.86913       -1.08622       -0.23276
C         -7.23292       -1.16081       -0.46964
C         -7.89743        0.01768       -0.80047
H         -8.96703       -0.01666       -0.98408
C         -7.21186        1.22422       -0.90517
C         -5.84577        1.28651       -0.65738
C         -5.15466        0.12619       -0.29587
H          1.46499       -1.64498       -0.70150
H         -0.96432       -1.74571       -0.53812
H         -2.64084        6.67150        0.72734
H         -0.96987        6.50455        0.09300
H         -1.29146        6.22715        1.82309
H          1.39236        2.55693        0.26625
H         -3.76173       -6.23081        0.36786
H         -5.37659       -6.03863       -0.39281
H         -5.19570       -5.82724        1.36672
H         -7.75504       -2.10320       -0.39459
H         -7.74391        2.13058       -1.17539
H         -5.32754        2.22968       -0.72743
