21
COMP13_000010.log	Energy: -586226.7114840
C          0.39694        0.59940       -0.14798
C         -1.03403        0.29961       -0.08130
C         -1.51835       -0.97452       -0.40419
C         -2.88303       -1.23427       -0.35498
H         -3.24828       -2.22485       -0.60746
C         -3.77686       -0.23326        0.01253
H         -4.84190       -0.44045        0.05205
C         -3.30130        1.03498        0.33980
C         -1.93942        1.29924        0.29944
H         -1.56892        2.27924        0.58576
C          1.03330        1.75563       -0.37827
C          2.50684        1.67752       -0.32281
C          2.99176        0.46646       -0.05100
H          4.01446        0.12745        0.03608
S          1.64380       -0.67765        0.16210
O          1.56208       -1.12785        1.54592
O          1.64531       -1.66452       -0.91446
H         -0.82818       -1.75458       -0.70944
H         -3.99324        1.81616        0.63923
H          0.52421        2.68496       -0.60736
H          3.12688        2.54861       -0.50164
