32
COMP62_440001.log	Energy: -1189198.8635158
C          2.21048        0.50720       -0.00313
C          0.90600       -0.04977       -0.00075
C          0.50900       -1.38517       -0.00969
O          1.18199       -2.52297       -0.01779
C         -0.90911       -1.52514       -0.01210
O         -1.48843       -2.74436       -0.02082
C         -1.60129       -0.34321       -0.00465
S         -0.50026        1.00958        0.00463
C         -3.03321       -0.16599       -0.00167
S         -4.14777       -1.51589       -0.00829
C         -5.51650       -0.46004        0.00098
H         -6.51851       -0.86678       -0.00038
C         -5.14110        0.84644        0.00890
O         -5.89652        1.98066        0.01805
C         -3.72558        1.01850        0.00751
O         -3.13972        2.23658        0.01457
C          3.47377       -0.07802        0.00466
C          4.14601       -1.34018        0.01912
O          3.74205       -2.51633        0.02860
N          5.49933       -0.99538        0.02097
H          6.22590       -1.69407        0.02959
C          5.69208        0.37859        0.00869
H          6.68459        0.80464        0.00954
C          4.46662        0.95737       -0.00162
C          3.78375        2.25227       -0.01540
O          4.17288        3.39678       -0.02650
N          2.41345        1.87712       -0.01327
H          1.68617        2.57684       -0.02960
H          2.19796       -2.47755        0.00056
H         -0.76800       -3.39510       -0.02055
H         -6.83340        1.75499        0.01852
H         -3.83937        2.90558        0.02300
