27
COMP22_200000.log	Energy: -1732691.7156583
C          2.45157        0.52533       -0.33076
C          1.03547        0.82035       -0.08246
C          0.46168        1.96053        0.42458
Cl         1.34592        3.33540        1.01403
C         -0.95497        1.92874        0.49624
H         -1.54966        2.73532        0.90752
C         -1.46888        0.75007        0.02931
S         -0.21120       -0.31977       -0.49064
C         -2.86575        0.34741       -0.05096
S         -4.11044        1.52783       -0.33356
C         -5.34564        0.32925       -0.27901
H         -6.38674        0.58884       -0.40518
C         -4.81102       -0.90569       -0.07351
Cl        -5.76062       -2.35438        0.02968
C         -3.39444       -0.90982        0.06123
H         -2.81155       -1.80165        0.25733
C          3.02091       -0.75347       -0.00564
N          2.37485       -1.79069        0.52715
S          3.47014       -2.98119        0.69542
N          4.79542       -2.24401        0.11012
C          4.41784       -1.01459       -0.24583
C          5.25618       -0.01099       -0.80944
H          6.30554       -0.21984       -0.98227
C          4.68574        1.18865       -1.11451
H          5.28840        1.97838       -1.55170
C          3.29958        1.45007       -0.88568
H          2.90637        2.41977       -1.17059
