31
COMP42_210002.log	Energy: -1988669.0155801
C          2.02462        1.10170       -0.04958
C          0.57725        1.03463        0.08321
C         -0.33583        2.04584        0.29614
Cl        -0.00079        3.72479        0.49775
C         -1.67488        1.58613        0.36525
F         -2.68463        2.41195        0.59839
C         -1.80977        0.23963        0.19712
S         -0.25949       -0.49321       -0.04913
C         -3.04003       -0.52944        0.20995
S         -3.18377       -2.07538        0.99488
C         -4.83332       -2.23435        0.53150
H         -5.40448       -3.10996        0.80406
C         -5.26145       -1.15501       -0.17732
Cl        -6.85187       -0.94981       -0.81176
C         -4.23287       -0.18717       -0.36174
F         -4.42902        0.92748       -1.05046
C          2.94867        0.08895       -0.16477
C          2.96453       -1.39737       -0.17889
O          2.07582       -2.21085       -0.10793
N          4.32963       -1.71375       -0.28102
O          4.74360       -2.99176       -0.48382
C          5.08616       -3.61302        0.75780
C          5.20686       -0.62094       -0.38750
O          6.40308       -0.68349       -0.50452
C          4.28974        0.54173       -0.29273
C          4.42245        1.88856       -0.28411
H          5.32189        2.48381       -0.36160
S          2.88048        2.63743       -0.11497
H          5.38035       -4.62815        0.48948
H          4.21945       -3.63922        1.42522
H          5.92513       -3.09166        1.22840
