31
COMP27_120100.log	Energy: -2030247.1308355
C          3.14709        0.52030       -0.16667
C          1.75883        0.06525       -0.29925
C          1.30853       -1.13153       -0.78549
Cl         2.30286       -2.37657       -1.43894
C         -0.10561       -1.24465       -0.73665
F         -0.72991       -2.33712       -1.17576
C         -0.75073       -0.15273       -0.22069
S          0.42847        1.04513        0.21859
C         -2.16385        0.10785       -0.01664
C         -3.15569       -0.74509       -0.33543
C         -4.56927       -0.48447       -0.13392
C         -5.21346        0.60704        0.38540
F         -4.58943        1.69737        0.83024
C         -6.63080        0.49545        0.41828
Cl        -7.64685        1.74917        1.03022
C         -7.06887       -0.69284       -0.08133
H         -8.09047       -1.03160       -0.17286
S         -5.75324       -1.67577       -0.59080
C          4.08932       -0.17639        0.66460
N          3.82441       -1.25243        1.39889
S          5.21341       -1.65111        2.14643
N          6.19568       -0.48220        1.58108
C          5.45415        0.27198        0.77198
C          5.89916        1.42856        0.06724
H          6.92051        1.77983        0.14275
C          4.98197        2.07170       -0.69499
F          5.29914        3.16193       -1.38904
C          3.62268        1.62411       -0.81213
F          2.83770        2.34640       -1.60563
H         -2.40680        1.06797        0.42704
H         -2.91231       -1.70464       -0.78021
