29
COMP23_000000.log	Energy: -657735.6046219
C          0.30890        0.73503       -0.33159
C         -1.12438        0.42079       -0.09295
C         -1.65550       -0.74126       -0.66350
C         -2.99209       -1.09390       -0.51287
C         -3.55053       -2.34237       -1.14819
C         -3.80564       -0.25127        0.24740
H         -4.85432       -0.50055        0.39226
C         -3.28662        0.89471        0.83204
C         -1.94586        1.25781        0.67867
C         -1.43285        2.50549        1.35787
C          1.34134       -0.19422        0.03503
N          1.15984       -1.37935        0.62187
S          2.63776       -2.02405        0.82667
N          3.56565       -0.84703        0.19258
C          2.72935        0.11167       -0.21074
C          3.09989        1.34214       -0.82524
H          4.14638        1.55986       -1.00544
C          2.10003        2.20386       -1.16376
H          2.34055        3.15053       -1.63793
C          0.72315        1.90014       -0.92022
H         -0.02464        2.62362       -1.23069
H         -0.99794       -1.38414       -1.24241
H         -2.76053       -2.94279       -1.60841
H         -4.28141       -2.09632       -1.92720
H         -4.06097       -2.96863       -0.40846
H         -3.93519        1.52502        1.43574
H         -2.08133        2.77715        2.19617
H         -1.41047        3.36214        0.67414
H         -0.41783        2.37190        1.74267
