42
COMP29_000430.log	Energy: -1560083.8324928
C          2.67646        0.51226       -0.08766
C          1.21727        0.62825       -0.09388
C          0.30265       -0.40553       -0.13357
C         -1.02460        0.05919       -0.10843
C         -1.13093        1.42661       -0.04863
S          0.39585        2.19440       -0.03475
C         -2.53184        1.78720       -0.03236
C         -3.29659        0.64545       -0.06358
C         -2.40162       -0.58224       -0.09860
C         -2.66719       -1.45826       -1.32431
O         -1.86653       -1.73769       -2.17638
O         -3.94041       -1.87679       -1.31459
C         -4.30098       -2.75289       -2.38245
C         -2.49555       -1.48130        1.14048
O         -2.23908       -2.66047        1.12278
O         -2.82682       -0.79581        2.23371
C         -2.81907       -1.54798        3.44794
C         -4.69061        0.90367       -0.04290
C         -4.94595        2.24476        0.00436
H         -5.90836        2.73709        0.02395
S         -3.49738        3.20494        0.02451
C          3.34018       -0.77237       -0.00609
N          2.74976       -1.96017        0.07736
S          3.92496       -3.08689        0.14987
N          5.23641       -2.11975        0.08139
C          4.78365       -0.87429       -0.00219
C          5.60312        0.28693       -0.07672
H          6.68398        0.19622       -0.07303
C          4.96113        1.47938       -0.14773
O          5.57561        2.69312       -0.22317
C          3.52128        1.59774       -0.15234
O          3.02065        2.84871       -0.22273
H          0.58728       -1.44589       -0.18218
H         -5.35167       -2.99211       -2.22226
H         -3.69123       -3.65873       -2.35035
H         -4.16196       -2.25847       -3.34669
H         -3.07415       -0.83570        4.23134
H         -1.83040       -1.97849        3.62328
H         -3.55751       -2.35194        3.40311
H         -5.45912        0.14197       -0.06870
H          6.53376        2.58316       -0.22574
H          3.75915        3.47496       -0.26313
