30
COMP52_110400.log	Energy: -1749142.4536780
C         -1.03336       -0.06981        0.35295
C          0.35740        0.33785        0.30157
C          0.89590        1.56619        0.54757
F          0.19517        2.63913        0.89685
C          2.30640        1.61193        0.40613
F          2.99553        2.73083        0.62507
C          2.87573        0.42020        0.05890
S          1.62646       -0.78073       -0.14490
C          4.27998        0.12521       -0.13205
S          5.53723        1.31304        0.09312
C          6.77808        0.18349       -0.31008
H          7.81855        0.47203       -0.31374
C          6.25609       -1.03362       -0.60104
F          6.95379       -2.10993       -0.94856
C          4.83910       -1.06610       -0.49999
F          4.13820       -2.17340       -0.74682
C         -1.56311       -1.19608        0.94964
O         -0.89894       -2.14661        1.62771
N         -2.90529       -1.35885        0.84112
C         -3.42809       -0.36809        0.17172
S         -2.32192        0.83955       -0.38303
C         -4.85236       -0.25525       -0.09689
S         -5.96957       -1.45173        0.46811
C         -7.23917       -0.54307       -0.26355
H         -8.26913       -0.86650       -0.21385
C         -6.72229        0.57480       -0.86402
O         -7.38716        1.53472       -1.53692
N         -5.37458        0.73326       -0.76837
H          0.02549       -1.88275        1.73578
H         -8.32804        1.32366       -1.54075
