39
COMP55_000300.log	Energy: -1177569.5626676
C          0.55832        0.24166       -0.22817
C         -0.84983       -0.16951       -0.24789
C         -1.82719        0.69360        0.25172
C         -3.15347        0.27964        0.19440
N         -4.28654        0.95439        0.59939
C         -4.30649        2.28479        1.15934
C         -5.38444        0.13759        0.38460
C         -6.73276        0.37922        0.65339
C         -7.64218       -0.61589        0.32567
H         -8.69722       -0.45254        0.52372
C         -7.23085       -1.82757       -0.25094
C         -5.89002       -2.06532       -0.50952
C         -4.95486       -1.07932       -0.18974
C         -3.51865       -0.98782       -0.31392
C         -2.52857       -1.84236       -0.79690
C         -1.20638       -1.43185       -0.76760
C          1.11669        1.49357       -0.40603
C          0.36772        2.68499       -0.67304
N         -0.25791        3.64032       -0.87121
N          2.48304        1.57234       -0.33906
C          2.98841        0.39733       -0.11311
S          1.83584       -0.89230        0.04691
C          4.41763        0.15236        0.00550
S          5.57145        1.44629       -0.16150
C          6.82371        0.30827        0.10750
H          7.86725        0.58917        0.11411
C          6.29171       -0.93838        0.29986
C          7.07527       -2.11165        0.55310
N          7.73242       -3.04330        0.75660
N          4.92382       -1.02197        0.24074
H         -1.55657        1.64777        0.68822
H         -3.53599        2.89615        0.68176
H         -4.13646        2.27299        2.24210
H         -5.27334        2.75010        0.95712
H         -7.06658        1.30597        1.10880
H         -7.97109       -2.58324       -0.49301
H         -5.56938       -3.00347       -0.95325
H         -2.78749       -2.81638       -1.20058
H         -0.43618       -2.08284       -1.17025
