31
COMP23_000220.log	Energy: -1328865.7400553
C         -0.34956        0.08653       -0.01141
C          1.11447       -0.10124        0.14097
C          1.99950        0.56849       -0.70369
C          3.37315        0.36613       -0.58883
O          4.31252        0.97349       -1.36318
C          3.86966        1.90785       -2.31963
C          3.85012       -0.52005        0.37607
H          4.92092       -0.67405        0.45719
C          2.97525       -1.18833        1.22075
C          1.59850       -0.98235        1.11327
O          0.66444       -1.56828        1.90729
C          1.09146       -2.56295        2.80792
C         -1.14365       -0.99537       -0.51653
N         -0.67920       -2.19081       -0.87858
S         -1.96760       -3.05070       -1.37056
N         -3.15418       -1.95734       -1.15741
C         -2.56263       -0.86116       -0.68138
C         -3.20800        0.36287       -0.35833
H         -4.27717        0.47129       -0.49011
C         -2.44060        1.38404        0.11165
Cl        -3.22109        2.88673        0.50304
C         -1.01110        1.24800        0.29301
Cl        -0.12716        2.59371        0.94528
H          1.58941        1.24308       -1.44637
H          4.76781        2.29058       -2.80580
H          3.33041        2.74115       -1.84996
H          3.22335        1.44025       -3.07433
H          3.37906       -1.86679        1.96310
H          0.18856       -2.93915        3.29016
H          1.76387       -2.15436        3.57351
H          1.59413       -3.38753        2.28623
