33
COMP27_400200.log	Energy: -1875609.0288791
C         -2.37872       -0.08101        0.15177
C         -1.00182       -0.45077        0.51052
C         -0.60622       -1.38153        1.43124
H         -1.30085       -1.96383        2.02666
C          0.80619       -1.49446        1.52057
O          1.47573       -2.33289        2.35312
C          1.48493       -0.65166        0.66925
S          0.36213        0.29914       -0.25271
C          2.92446       -0.56191        0.54634
C          3.60664        0.33360       -0.19650
C          5.05012        0.32481       -0.36396
C          5.89204       -0.76392       -0.42946
O          5.52415       -2.06598       -0.35942
C          7.26102       -0.41969       -0.62967
H          8.04900       -1.15855       -0.70325
C          7.44247        0.92516       -0.72383
H          8.37287        1.45614       -0.86971
S          5.96319        1.79596       -0.57787
C         -2.79726        1.29082        0.24684
N         -2.03309        2.30816        0.64401
S         -2.96579        3.63611        0.58429
N         -4.36472        2.98986        0.06491
C         -4.13746        1.68396       -0.08280
C         -5.08468        0.71668       -0.50864
H         -6.09794        1.01058       -0.75220
C         -4.67808       -0.57997       -0.59486
Cl        -5.83380       -1.76628       -1.11814
C         -3.32702       -0.98488       -0.27454
Cl        -2.91086       -2.65734       -0.47762
H          0.84442       -2.88691        2.82539
H          3.46620       -1.27971        1.16001
H          3.05895        1.11311       -0.72712
H          4.55998       -2.11523       -0.43690
