52
COMP71_200003.log	Energy: -2486899.6944751
C          0.33208       -2.00461       -0.49164
C         -1.02800       -1.47388       -0.38133
C         -1.90694       -1.65925        0.63406
Cl        -1.45676       -2.60323        2.02128
C         -3.17801       -0.98123        0.46292
C         -4.30889       -0.94403        1.29534
C         -4.40355       -1.66846        2.61426
C         -5.37619       -0.17880        0.83019
S         -6.88734        0.01950        1.70408
C         -7.51803        1.03527        0.45451
H         -8.51234        1.45183        0.53550
C         -6.65132        1.22071       -0.56273
Cl        -7.09991        2.20727       -1.92471
C         -5.37956        0.53662       -0.39786
C         -4.24992        0.49767       -1.23023
C         -4.15549        1.22725       -2.54633
C         -3.18214       -0.26787       -0.76553
S         -1.67833       -0.46503       -1.64177
C          1.52442       -1.35047       -0.30371
C          1.67151        0.05812        0.13728
O          0.74579        0.73100        0.54230
C          3.07195        0.57069        0.07990
C          3.42752        1.88125        0.28009
C          2.54861        3.08658        0.37952
O          1.67262        3.35577       -0.39882
O          2.92567        3.85607        1.40777
C          2.18526        5.07102        1.55796
S          5.13462        2.07908        0.26636
C          5.39353        0.41167       -0.08292
C          6.77837       -0.05285       -0.38464
O          7.07550       -0.81874       -1.26239
O          7.65727        0.56586        0.41889
C          9.03007        0.25683        0.16470
C          4.20740       -0.28016       -0.13127
C          4.05870       -1.75492       -0.31029
O          4.98946       -2.53282       -0.27340
C          2.65862       -2.20127       -0.50323
C          2.30850       -3.47738       -0.83942
H          2.98222       -4.30254       -1.02681
S          0.60909       -3.65755       -0.93737
H         -4.23501       -2.74126        2.49212
H         -5.38955       -1.54054        3.06761
H         -3.66216       -1.29680        3.32695
H         -4.90649        0.86969       -3.25627
H         -3.17401        1.09173       -3.00731
H         -4.30948        2.30119       -2.41563
H          2.62313        5.57280        2.41947
H          1.13028        4.85034        1.73395
H          2.27897        5.68760        0.66094
H          9.60130        0.86809        0.86180
H          9.29049        0.50000       -0.86806
H          9.21553       -0.80504        0.34063
