58
COMP81_200031.log	Energy: -2152275.6279162
C         -0.90486        0.01204        0.07868
C          0.56766        0.01509        0.08615
C          1.42901        1.05197       -0.08932
Cl         0.88853        2.63803       -0.53606
C          2.82725        0.67875       -0.03653
C          3.98168        1.46584       -0.13325
C          3.95630        2.96079       -0.01495
O          3.46531        3.55539        0.91068
O          4.61884        3.54308       -1.02224
C          4.73516        4.96578       -0.93378
C          5.21295        0.81325       -0.18458
S          6.76580        1.59396       -0.40182
C          7.57821        0.06877       -0.29620
H          8.65019        0.01276       -0.42638
C          6.74206       -0.97495       -0.11217
Cl         7.32146       -2.60710       -0.13040
C          5.34831       -0.58881       -0.01042
C          4.19937       -1.35965        0.20928
C          4.25345       -2.78566        0.67071
O          4.85386       -3.15831        1.64605
O          3.48677       -3.57398       -0.09356
C          3.39606       -4.93623        0.33303
C          2.96241       -0.72323        0.12721
S          1.40765       -1.50373        0.28816
C         -1.60692       -0.94241       -0.66387
C         -2.99833       -0.98596       -0.66366
C         -3.72268       -0.06696        0.09636
C         -5.15761        0.22800        0.29843
C         -5.17696        1.45734        1.19907
O         -6.11177        2.07972        1.66140
N         -3.86401        1.75171        1.47217
H         -3.60681        2.53398        2.05317
C         -2.98896        0.89708        0.82031
C         -1.60997        0.95228        0.83946
C         -6.28863       -0.40072       -0.13120
C         -6.27345       -1.77613       -0.79257
O         -5.34366       -2.51548       -1.04793
N         -7.58426       -2.09957       -1.02975
H         -7.84386       -2.97595       -1.45393
C         -8.45366       -1.09109       -0.63659
C         -9.82870       -1.07182       -0.78185
C        -10.50784        0.06646       -0.35037
H        -11.58803        0.11321       -0.45089
C         -9.81240        1.14039        0.19690
C         -8.42611        1.10326        0.34042
C         -7.71822       -0.03003       -0.06704
H          5.31745        5.26421       -1.80431
H          5.24526        5.24971       -0.01052
H          3.74531        5.42684       -0.95494
H          2.73915       -5.42233       -0.38667
H          2.97533       -4.99358        1.33951
H          4.38519       -5.39914        0.32873
H         -1.05875       -1.65729       -1.26933
H         -3.51347       -1.73763       -1.24021
H         -1.08659        1.69636        1.42980
H        -10.35546       -1.91173       -1.22371
H        -10.35206        2.02373        0.52229
H         -7.90234        1.93840        0.77780
