44
COMP41_200030.log	Energy: -2150744.0692199
C         -2.78469        0.70349       -0.57230
C         -1.35711        0.47898       -0.36479
C         -0.37004        1.38749       -0.13804
Cl        -0.66264        3.09114       -0.06440
C          0.94691        0.80404       -0.01795
C          2.18100        1.40886        0.24754
C          2.31790        2.82865        0.72131
O          1.89521        3.22729        1.77600
O          3.02951        3.56354       -0.14034
C          3.26862        4.91423        0.26748
C          3.32002        0.61191        0.18821
S          4.95982        1.19092        0.38911
C          5.57688       -0.41090        0.17358
H          6.64394       -0.58559        0.16594
C          4.61649       -1.33769       -0.03593
Cl         5.02606       -2.97068       -0.43908
C          3.27154       -0.79401       -0.00341
C          2.02327       -1.41603       -0.14443
C          1.84633       -2.89973       -0.04377
O          2.32831       -3.58154        0.82407
O          1.01790       -3.35897       -0.99186
C          0.68414       -4.74667       -0.88995
C          0.89248       -0.59969       -0.21696
S         -0.74060       -1.15030       -0.49042
C         -3.84765        0.03201       -0.03637
C         -4.07975       -1.04364        0.96725
O         -3.29104       -1.69825        1.60619
N         -5.47569       -1.16720        1.03886
C         -6.14942       -2.10749        1.90823
C         -6.16979       -0.29463        0.19038
O         -7.37198       -0.23508        0.09351
C         -5.10774        0.47865       -0.50290
C         -5.03316        1.48345       -1.41139
H         -5.83459        2.01003       -1.91139
S         -3.38447        1.89804       -1.70165
H          3.84557        5.36348       -0.53929
H          3.83003        4.93602        1.20429
H          2.32004        5.43815        0.40430
H         -0.00501       -4.94090       -1.71039
H          0.20864       -4.95193        0.07161
H          1.58444       -5.35717       -0.98658
H         -5.38295       -2.67306        2.43921
H         -6.77351       -2.78367        1.31879
H         -6.78170       -1.57492        2.62302
