35
COMP42_040003.log	Energy: -1452903.0514409
C          0.71691        1.18785       -0.04435
C         -0.51933        0.44148       -0.06535
C         -0.65748       -0.92123       -0.17620
H          0.18894       -1.59452       -0.26150
C         -2.00970       -1.32702       -0.16104
O         -2.43672       -2.61307       -0.25574
C         -2.91421       -0.29124       -0.03968
S         -2.06545        1.22636        0.05967
C         -4.35599       -0.38114        0.00987
S         -5.21600       -1.89930       -0.08486
C         -6.73677       -1.11123        0.04393
H         -7.64963       -1.69057        0.03167
C         -6.61671        0.24121        0.15426
H         -7.45482        0.92377        0.24640
C         -5.25556        0.65461        0.13455
O         -4.82718        1.94059        0.22943
C          2.02472        0.75474       -0.05267
C          2.74620       -0.53002       -0.09457
O          2.33375       -1.66075       -0.19509
N          4.12835       -0.17347       -0.04636
C          5.20541       -1.09232       -0.10718
O          6.21658       -0.89148       -0.72238
O          4.93321       -2.16840        0.62276
C          5.92480       -3.19592        0.56501
C          4.34222        1.23903       -0.00933
O          5.40585        1.79146        0.05588
C          2.97682        1.80516       -0.01395
C          2.44204        3.04900        0.02436
H          2.94018        4.00758        0.05838
S          0.71735        2.94019        0.00710
H         -1.67410       -3.19972       -0.31800
H         -5.58567        2.53130        0.29534
H          5.52244       -4.01746        1.15560
H          6.86554       -2.83833        0.98960
H          6.09026       -3.50836       -0.46843
