28
COMP52_010000.log	Energy: -1530276.2765038
C          1.07052       -0.07481        0.19171
C         -0.33240        0.29638        0.16654
C         -0.88265        1.54407        0.29056
H         -0.32425        2.45889        0.44550
C         -2.29257        1.49608        0.22186
F         -3.04050        2.60060        0.32758
C         -2.84006        0.25236        0.05187
S         -1.55559       -0.92048       -0.04846
C         -4.23925       -0.10508       -0.04679
S         -5.53066        1.06258        0.03091
C         -6.73090       -0.15857       -0.16043
H         -7.77671        0.11457       -0.17490
C         -6.19466       -1.40431       -0.27905
H         -6.75494       -2.32095       -0.40819
C         -4.78047       -1.35240       -0.21206
F         -4.02556       -2.45443       -0.30709
C          1.63123       -1.28243        0.52204
H          1.07144       -2.15419        0.84096
N          2.99138       -1.35416        0.45548
C          3.49308       -0.21108        0.08130
S          2.33022        1.04224       -0.23413
C          4.91690        0.03867       -0.07406
S          6.09003       -1.20982        0.22158
C          7.32575       -0.08041       -0.18060
H          8.37092       -0.35437       -0.16065
C          6.77574        1.12478       -0.50089
H          7.33291        2.00680       -0.79105
N          5.41001        1.18873       -0.43929
