27
COMP22_220100.log	Energy: -2433967.8627090
C         -2.51628        0.52499       -0.08820
C         -1.09485        0.34160        0.23297
C         -0.55670       -0.40975        1.24011
Cl        -1.49547       -1.26479        2.40335
C          0.87167       -0.38255        1.25690
Cl         1.81617       -1.20433        2.43700
C          1.40377        0.38475        0.25673
S          0.14872        1.07882       -0.71506
C          2.81194        0.63666       -0.03450
S          3.52352        2.19765        0.22731
C          5.06038        1.66215       -0.31992
H          5.90767        2.33208       -0.35052
C          5.03501        0.34982       -0.67883
Cl         6.40938       -0.50784       -1.27242
C          3.74263       -0.24242       -0.51954
Cl         3.39628       -1.87918       -0.92103
C         -3.33303       -0.57124       -0.52760
N         -2.91735       -1.82000       -0.71355
S         -4.21699       -2.66735       -1.20322
N         -5.34645       -1.49427       -1.20694
C         -4.73123       -0.38011       -0.81532
C         -5.33326        0.90574       -0.68517
H         -6.38263        1.06432       -0.89941
C         -4.53074        1.92115       -0.28393
F         -4.99849        3.15786       -0.13481
C         -3.13819        1.73437        0.01238
F         -2.47456        2.81558        0.40981
