52
COMP83_000000.log	Energy: -792933.1306925
C         -2.71121       -0.25433        0.12524
C         -4.19484       -0.37249        0.13705
C         -4.91522        0.28550       -0.86675
C         -6.30366        0.23105       -0.94247
C         -7.05847        0.93605       -2.04122
C         -6.97834       -0.50289        0.03470
H         -8.06384       -0.56580        0.00837
C         -6.27756       -1.14777        1.04434
C         -4.88294       -1.10133        1.12129
C         -4.17756       -1.80333        2.25734
C         -1.88821       -1.38291        0.09315
C         -0.50002       -1.28060        0.03692
C          0.10354       -0.02275        0.00885
C          1.49195        0.47645        0.01719
C          1.35538        1.99098        0.09799
O          2.21568        2.85187        0.11634
N          0.00964        2.27067        0.09410
C         -0.52750        3.60675        0.14813
C         -0.74307        1.10320        0.06643
C         -2.12133        1.01634        0.11446
C          2.69556       -0.15716       -0.07360
C          2.83209       -1.62393       -0.45327
O          1.97173       -2.44879       -0.70161
N          4.17809       -1.89175       -0.53224
C          4.71415       -3.18172       -0.88536
C          4.93142       -0.77388       -0.19372
C          6.31081       -0.70622       -0.10722
C          6.87519        0.50434        0.29463
H          7.95496        0.59037        0.37219
C          6.06719        1.59299        0.60445
C          4.67787        1.51013        0.50553
C          4.08450        0.31898        0.08642
H         -4.36205        0.84109       -1.62097
H         -6.38200        1.48660       -2.70143
H         -7.78102        1.65042       -1.63049
H         -7.61998        0.22368       -2.65618
H         -6.82671       -1.69860        1.80446
H         -4.85773       -1.93786        3.10382
H         -3.30575       -1.24138        2.60403
H         -3.82304       -2.79773        1.96243
H         -2.34271       -2.36834        0.08608
H          0.10611       -2.17172       -0.00751
H          0.31377        4.30049        0.14222
H         -1.11346        3.75188        1.06233
H         -1.16572        3.79992       -0.72054
H         -2.73961        1.90729        0.16342
H          3.87263       -3.83704       -1.11212
H          5.29068       -3.60304       -0.05439
H          5.36103       -3.10134       -1.76538
H          6.93011       -1.56721       -0.33683
H          6.51837        2.52628        0.92548
H          4.06431        2.36633        0.73698
