27
COMP12_130000.log	Energy: -1373947.9827500
C          2.64531       -0.74136       -0.11395
C          1.33561       -0.13331       -0.13530
C          0.97883        1.15872       -0.41028
F          1.83468        2.11374       -0.72076
C         -0.42014        1.41172       -0.35766
C         -0.97032        2.69285       -0.65347
N         -1.40594        3.73981       -0.89287
C         -1.14097        0.27615       -0.03179
S         -0.08412       -1.06549        0.22602
C         -2.57895        0.13962        0.13660
S         -3.53918        1.44638        0.73819
C         -4.98567        0.52374        0.66556
H         -5.93787        0.94497        0.95210
C         -4.73718       -0.72841        0.20415
F         -5.66066       -1.66374        0.03406
C         -3.36662       -0.97420       -0.10376
C         -2.91418       -2.22231       -0.62159
N         -2.55826       -3.24535       -1.03468
C          2.98150       -2.03586       -0.22353
C          4.41052       -2.32130       -0.00117
C          5.14948       -1.25445        0.30200
H          6.21396       -1.17123        0.47202
S          4.13916        0.21248        0.29802
O          4.55230        1.06701       -0.80323
O          3.97879        0.76083        1.63633
H          2.27366       -2.82600       -0.45125
H          4.80788       -3.32514       -0.09533
