24
COMP54_100200.log	Energy: -2058489.6118748
C          0.27847        0.52556       -0.00113
C          1.68257        0.16207       -0.00095
C          2.18444       -1.11458       -0.00277
F          1.41605       -2.20512       -0.00540
C          3.59621       -1.18782       -0.00155
S          4.77857       -2.45236       -0.00208
C          6.05985       -1.27314        0.00144
H          7.09501       -1.58183        0.00209
C          5.58850        0.00014        0.00306
F          6.35355        1.08889        0.00590
C          4.16715        0.06664        0.00131
S          2.99758        1.33741        0.00230
C         -0.33717        1.75918       -0.00147
Cl         0.48061        3.28142       -0.00225
N         -1.69118        1.78191       -0.00115
C         -2.15929        0.56592       -0.00049
S         -0.97215       -0.69199       -0.00033
C         -3.58013        0.26265        0.00005
S         -4.77309        1.52386       -0.00083
C         -5.99332        0.31170        0.00051
H         -7.04651        0.54998        0.00053
C         -5.40924       -0.92013        0.00144
Cl        -6.28930       -2.40708        0.00290
N         -4.05023       -0.95416        0.00122
