48
COMP77_200003.log	Energy: -2438303.9909786
C          0.35784       -1.33249        0.78271
C         -0.88178       -0.56856        0.80643
C         -1.14249        0.65979        1.35227
H         -0.39415        1.27208        1.83153
C         -2.50152        1.03021        1.20644
Cl        -3.09844        2.54246        1.81299
C         -3.29377        0.10922        0.56074
S         -2.32477       -1.25777        0.10473
C         -4.70623        0.22315        0.26367
C         -5.44431       -0.73717       -0.32332
C         -6.85604       -0.68944       -0.66068
C         -7.83311        0.27333       -0.53803
Cl        -7.59822        1.85682        0.13212
C         -9.11349       -0.11888       -1.01855
H         -9.98108        0.52820       -0.99168
C         -9.10887       -1.38837       -1.50890
H         -9.93785       -1.93638       -1.93421
S         -7.55516       -2.11083       -1.38953
C          1.67862       -0.94405        0.64022
C          2.20602        0.43089        0.51332
O          1.58274        1.43699        0.80396
C          3.61564        0.51315        0.03651
C          4.22831        1.68333       -0.33609
C          3.64465        3.05470       -0.44589
O          4.11009        4.01918        0.11025
O          2.60115        3.06550       -1.26969
C          1.87696        4.29726       -1.32143
S          5.89172        1.44508       -0.67661
C          5.77523       -0.25120       -0.38809
C          6.95531       -1.11281       -0.68409
O          6.90848       -2.20216       -1.19093
O          8.08670       -0.46625       -0.36497
C          9.29472       -1.16509       -0.67542
C          4.50737       -0.60648        0.00637
C          4.05017       -1.95486        0.44320
O          4.79622       -2.88792        0.65530
C          2.57867       -2.06493        0.61496
C          1.94912       -3.26411        0.75531
H          2.41555       -4.23950        0.77395
S          0.25609       -3.06856        0.90560
H         -5.15411        1.16596        0.55412
H         -4.95645       -1.67481       -0.58840
H          1.10090        4.14623       -2.07015
H          2.53683        5.11951       -1.60602
H          1.43182        4.50235       -0.34523
H         10.10089       -0.51128       -0.34608
H          9.36266       -1.35088       -1.74999
H          9.32703       -2.11815       -0.14323
