50
COMP77_240003.log	Energy: -2532676.0871843
C          0.49589       -1.27878       -0.45090
C         -0.70680       -0.47566       -0.41486
C         -0.94590        0.79852       -0.90284
O         -0.06543        1.64613       -1.42568
C         -2.33628        1.13398       -0.86133
Cl        -2.89489        2.67078       -1.41364
C         -3.14999        0.15781       -0.34878
S         -2.20296       -1.22267        0.10990
C         -4.58341        0.23482       -0.15924
C         -5.32819       -0.70661        0.44862
C         -6.76482       -0.68521        0.65516
C         -7.77425        0.09673        0.14712
Cl        -7.59255        1.37969       -1.01045
C         -9.08128       -0.23789        0.62453
O        -10.21719        0.38991        0.25931
C         -9.05199       -1.28321        1.49960
H         -9.89522       -1.73115        2.00361
S         -7.44859       -1.85801        1.74068
C          1.84392       -0.97853       -0.28620
C          2.41361        0.30500        0.11913
O          1.74038        1.28623        0.42880
C          3.89730        0.36718        0.16496
C          4.61714        1.52019        0.37197
C          4.14859        2.93999        0.40573
O          3.39965        3.43124       -0.39696
O          4.74474        3.60145        1.40414
C          4.42285        4.99369        1.48769
S          6.30391        1.19969        0.44379
C          6.07139       -0.47507        0.11446
C          7.26711       -1.33744       -0.11640
O          7.36393       -2.16755       -0.98016
O          8.24732       -1.00046        0.73509
C          9.47490       -1.71257        0.55734
C          4.73704       -0.78284        0.01156
C          4.15181       -2.13921       -0.17312
O          4.79751       -3.16480       -0.10274
C          2.68694       -2.14174       -0.40111
C          1.99445       -3.28528       -0.64581
H          2.40804       -4.27965       -0.74428
S          0.31312       -2.98623       -0.77846
H          0.71824        1.67941       -0.83054
H         -5.04013        1.13893       -0.54483
H         -4.83175       -1.58716        0.85516
H        -10.00047        1.09462       -0.36729
H          4.99243        5.37307        2.33455
H          3.35130        5.12308        1.65341
H          4.70904        5.50610        0.56641
H         10.15389       -1.31656        1.31103
H          9.87178       -1.54509       -0.44669
H          9.31424       -2.78241        0.70637
