25
COMP24_300000.log	Energy: -1223070.6226517
C         -1.35360        0.87723       -0.39727
C          0.04215        0.43892       -0.27229
C          0.56978       -0.80756       -0.52646
C         -0.17043       -1.92041       -1.02426
N         -0.73056       -2.83875       -1.45595
C          1.98142       -0.83331       -0.30066
S          3.21619       -2.03789       -0.43863
C          4.41535       -0.90337        0.06721
H          5.45034       -1.20537        0.14969
C          3.90846        0.34247        0.32963
C          4.69441        1.45398        0.75699
N          5.31817        2.36747        1.10347
C          2.49416        0.37623        0.11322
S          1.25792        1.57601        0.24679
C         -2.41506        0.12329        0.20450
N         -2.28057       -0.98158        0.93747
S         -3.78111       -1.43111        1.36616
N         -4.65364       -0.24952        0.67221
C         -3.78067        0.55177        0.05653
C         -4.09242        1.73693       -0.66817
H         -5.12582        2.04781       -0.76965
C         -3.05881        2.44482       -1.20773
H         -3.25765        3.35478       -1.76436
C         -1.70199        2.01851       -1.07381
H         -0.92549        2.61053       -1.54970
