56
COMP87_310000.log	Energy: -1579887.1050301
C          0.32056       -0.55301       -0.06775
C         -1.13309       -0.73569       -0.13207
C         -1.85202       -1.86748       -0.39846
F         -1.30575       -3.05383       -0.66041
C         -3.26583       -1.70906       -0.39915
C         -4.14805       -2.79185       -0.67272
N         -4.87295       -3.67053       -0.89164
C         -3.64220       -0.40462       -0.12104
S         -2.23959        0.57349        0.13922
C         -4.94254        0.22735       -0.00948
C         -6.13042       -0.39915       -0.12240
C         -7.43178        0.23368       -0.01190
C         -7.80715        1.55261        0.19230
C         -6.92195        2.65605        0.34506
N         -6.19485        3.55127        0.46965
C         -9.22602        1.70392        0.23185
F         -9.78604        2.89251        0.41813
C         -9.91832        0.54868        0.06442
H        -10.98976        0.41626        0.05612
S         -8.83575       -0.77058       -0.14864
C          0.89706        0.69180       -0.33938
C          2.27258        0.89277       -0.26622
C          3.11324       -0.16388        0.08048
C          4.57336       -0.35493        0.19261
C          4.74052       -1.82430        0.54614
O          5.75087       -2.45913        0.78258
N          3.47789       -2.36702        0.61526
C          3.21934       -3.74763        0.94186
C          2.51066       -1.41594        0.32733
C          1.14860       -1.63384        0.27181
C          5.62326        0.50336        0.04947
C          5.45148        2.01294       -0.06072
O          4.43714        2.68457       -0.01557
N          6.70835        2.55151       -0.17787
C          6.96203        3.96610       -0.29148
C          7.68022        1.55753       -0.17583
C          9.04357        1.74150       -0.32072
C          9.85284        0.60521       -0.32356
H         10.92710        0.71728       -0.43508
C          9.29421       -0.66133       -0.19173
C          7.91758       -0.82974       -0.04226
C          7.08242        0.28859       -0.02174
H         -4.91395        1.29576        0.18322
H         -6.15919       -1.46868       -0.30887
H          0.26749        1.52726       -0.63129
H          2.68542        1.86812       -0.46875
H          4.18206       -4.22973        1.11357
H          2.70181       -4.24838        0.11667
H          2.60853       -3.82152        1.84779
H          0.73200       -2.61017        0.48537
H          6.00049        4.47764       -0.24113
H          7.44860        4.19534       -1.24564
H          7.60117        4.30917        0.52886
H          9.46793        2.73351       -0.43488
H          9.93449       -1.53751       -0.19995
H          7.49923       -1.81697        0.07289
