24
COMP54_200100.log	Energy: -2058496.1262828
C          0.30456       -0.39278       -0.00221
C         -1.11415       -0.09143       -0.00164
C         -1.75280        1.12632       -0.00314
Cl        -0.98235        2.67381       -0.00707
C         -3.16785        1.00924       -0.00145
S         -4.48939        2.12618       -0.00182
C         -5.62386        0.81000        0.00176
H         -6.68659        1.00678        0.00261
C         -5.01803       -0.40810        0.00331
Cl        -5.85644       -1.92025        0.00703
C         -3.59762       -0.29911        0.00145
S         -2.28147       -1.41473        0.00207
C          0.89445       -1.63562       -0.00495
F          0.20023       -2.76680       -0.00817
N          2.23376       -1.71808       -0.00445
C          2.73859       -0.51184       -0.00068
S          1.59133        0.78385        0.00181
C          4.16503       -0.24470        0.00079
S          5.32776       -1.53236       -0.00400
C          6.57927       -0.35044        0.00100
H          7.62780       -0.60574        0.00025
C          6.01409        0.88892        0.00574
F          6.70270        2.01871        0.01044
N          4.66481        0.96257        0.00567
