32
COMP52_340200.log	Energy: -2192641.5107722
C         -0.84539       -0.24023        0.36599
C          0.51601        0.26832        0.35245
C          0.93015        1.55969        0.62288
C          0.11216        2.64251        1.05392
N         -0.46111        3.58735        1.40918
C          2.33680        1.73893        0.46548
O          2.99527        2.89658        0.68359
C          2.98966        0.59524        0.07438
S          1.85528       -0.71412       -0.10713
C          4.41028        0.43172       -0.15208
S          5.55869        1.72882        0.07025
C          6.87434        0.73873       -0.37685
H          7.88194        1.12919       -0.39650
C          6.47511       -0.53501       -0.68771
C          7.31971       -1.60613       -1.09918
N          7.93106       -2.53196       -1.43903
C          5.05962       -0.70881       -0.55779
O          4.39649       -1.85849       -0.80137
C         -1.34200       -1.44538        0.80939
Cl        -0.39721       -2.69961        1.52471
N         -2.67668       -1.64237        0.69272
C         -3.23889       -0.59549        0.15363
S         -2.17126        0.70109       -0.25287
C         -4.66829       -0.49969       -0.09360
S         -5.74904       -1.78948        0.32635
C         -7.04791       -0.84187       -0.28197
H         -8.07041       -1.18930       -0.27364
C         -6.56611        0.34822       -0.74297
Cl        -7.54998        1.58706       -1.43490
N         -5.22557        0.54568       -0.63930
H          2.37831        3.58705        0.96565
H          5.01441       -2.55450       -1.06666
