54
COMP82_030002.log	Energy: -1501113.7809843
C         -1.11210        0.43116       -0.16888
C         -2.57851        0.51050       -0.20072
C         -3.35574        1.54540       -0.64307
H         -2.95895        2.46039       -1.06519
C         -4.75021        1.27282       -0.54907
C         -5.74474        2.19829       -0.99285
N         -6.53323        2.96734       -1.35515
C         -5.02852        0.01972       -0.03364
S         -3.56109       -0.80473        0.35446
C         -6.32599       -0.59674        0.20999
S         -7.62849        0.29480        0.91542
C         -8.67578       -1.06722        0.87209
H         -9.69237       -0.97876        1.22933
C         -8.06697       -2.16601        0.35056
H         -8.54330       -3.12961        0.22362
C         -6.71608       -1.90265       -0.03027
C         -5.87956       -2.89382       -0.63016
N         -5.21926       -3.71564       -1.11304
C         -0.44956       -0.78950       -0.33708
C          0.94036       -0.87606       -0.32127
C          1.70334        0.27626       -0.13420
C          3.14777        0.59040       -0.13210
C          3.21807        2.11030       -0.09903
O          4.15080        2.87516       -0.21247
N          1.92464        2.52329        0.16471
O          1.54366        3.82510       -0.02174
C          1.77616        4.58212        1.16782
C          1.00652        1.49160        0.01623
C         -0.36589        1.60405        0.01404
C          4.25171       -0.20388       -0.06070
C          4.16824       -1.70223        0.21292
O          3.21918       -2.45891        0.23215
N          5.46111       -2.08740        0.46650
O          5.81861       -3.37553        0.72811
C          5.85296       -4.14859       -0.47710
C          6.38812       -1.07898        0.23291
C          7.76274       -1.18379        0.28711
C          8.49716       -0.03884       -0.02433
H          9.58188       -0.07835        0.00597
C          7.85436        1.14338       -0.37813
C          6.46163        1.22683       -0.41757
C          5.69713        0.10556       -0.09127
H         -1.02295       -1.69412       -0.51594
H          1.42356       -1.83038       -0.45928
H          1.37524        5.57332        0.95163
H          2.84764        4.64680        1.37379
H          1.24798        4.13799        2.01795
H         -0.83841        2.56921        0.15430
H          6.20048       -5.13456       -0.16640
H          6.55587       -3.71185       -1.19512
H          4.85277       -4.22268       -0.91169
H          8.23582       -2.11986        0.56090
H          8.44035        2.02109       -0.63051
H          5.97726        2.15020       -0.69417
