38
COMP29_000420.log	Energy: -1417868.0255613
C         -2.13081       -0.54707        0.00749
C         -0.67209       -0.43552       -0.01416
C          0.07409        0.72585        0.07131
C          1.45859        0.49153       -0.02995
C          1.76711       -0.83794       -0.17048
S          0.38383       -1.83805       -0.19572
C          3.21386       -0.99483       -0.19473
C          3.80344        0.23585       -0.07916
C          2.74641        1.33415        0.03315
O          2.92718        2.20169       -1.03528
C          1.91318        3.17509       -1.20576
O          2.84519        2.10477        1.20745
C          2.70746        1.39783        2.42058
C          5.21792        0.18587       -0.10071
C          5.66781       -1.09907       -0.23258
H          6.69099       -1.44620       -0.27756
S          4.37232       -2.25264       -0.33704
C         -2.98814        0.61915       -0.04164
N         -2.59240        1.88601       -0.11991
S         -3.93107        2.81532       -0.15612
N         -5.07345        1.65420       -0.07476
C         -4.43017        0.49391       -0.01733
C         -5.05636       -0.78195        0.05654
H         -6.13784       -0.86276        0.07413
C         -4.23438       -1.86042        0.09635
O         -4.65008       -3.15559        0.16448
C         -2.79412       -1.75199        0.07268
O         -2.10171       -2.90905        0.11449
H         -0.38208        1.69615        0.20006
H          2.29688        3.88600       -1.93968
H          1.70151        3.69894       -0.26817
H          0.99116        2.72354       -1.59322
H          3.46698        0.61040        2.51588
H          1.71308        0.94374        2.51968
H          2.84891        2.13115        3.21665
H          5.86832        1.04834       -0.02548
H         -5.61362       -3.19747        0.17622
H         -2.73203       -3.64452        0.14756
