42
COMP71_000012.log	Energy: -1718578.2902137
C         -0.02936       -1.67820       -0.14161
C         -1.38950       -1.15745       -0.03635
C         -1.91508       -0.01223       -0.54146
H         -1.32069        0.72124       -1.06560
C         -3.32334        0.12909       -0.29452
C         -4.16265        1.17740       -0.67802
H         -3.76600        2.02603       -1.22653
C         -5.50307        1.09649       -0.33310
S         -6.75170        2.27067       -0.69336
C         -7.94770        1.28973        0.11076
H         -8.97206        1.63557        0.15379
C         -7.44923        0.14420        0.62420
H         -8.04659       -0.58528        1.15868
C         -6.03400       -0.00562        0.38827
C         -5.19425       -1.05333        0.77263
H         -5.58760       -1.90239        1.32317
C         -3.85456       -0.97237        0.42486
S         -2.60728       -2.13796        0.79165
C          1.21116       -1.06192       -0.17079
C          1.49498        0.39662       -0.07588
O          0.62661        1.25463       -0.07855
C          2.92854        0.74052        0.01523
C          3.39683        2.01677        0.17041
O          2.65894        3.11656        0.28394
C          3.31216        4.36134        0.45477
S          5.15791        2.07295        0.21160
C          5.24003        0.32740        0.00307
O          6.39569       -0.32598       -0.05753
C          7.60172        0.40838        0.05420
C          3.99670       -0.23335       -0.08157
C          3.73130       -1.66704       -0.25101
O          4.59664       -2.51938       -0.36372
C          2.28606       -2.01494       -0.25869
C          1.86109       -3.30757       -0.31016
H          2.48727       -4.18670       -0.37352
S          0.15709       -3.40920       -0.25071
H          2.51936        5.10554        0.51928
H          3.95763        4.58875       -0.40255
H          3.90096        4.37359        1.38021
H          8.40237       -0.32575       -0.02630
H          7.66571        0.91497        1.02494
H          7.69339        1.14104       -0.75693
