48
COMP92_320000.log	Energy: -2028698.6432703
C          1.04612       -0.21171        0.05335
C         -0.41265       -0.23019        0.30375
C         -1.05537        0.16480        1.45122
C         -0.36788        0.76635        2.54614
N          0.22594        1.25710        3.41175
C         -2.46633       -0.05716        1.38932
Cl        -3.52637        0.33415        2.68688
C         -2.87563       -0.61965        0.21345
S         -1.51692       -0.87717       -0.83949
C         -4.23344       -0.96616       -0.19533
S         -4.78189       -2.61536       -0.22990
C         -6.33882       -2.15696       -0.76221
H         -7.10586       -2.89591       -0.94751
C         -6.45563       -0.79956       -0.90538
C         -7.65233       -0.15248       -1.33872
N         -8.62905        0.35994       -1.69329
C         -5.23635       -0.11955       -0.57922
Cl        -5.06425        1.58829       -0.67909
C          1.71327       -1.45864        0.08760
C          3.07568       -1.54066       -0.05877
C          3.73727       -2.87477       -0.01708
O          3.09910       -3.89895        0.12156
N          5.12723       -2.88323       -0.14851
C          5.82559       -4.16773       -0.11896
C          5.92964       -1.75134       -0.31283
O          7.13397       -1.86110       -0.42360
C          5.24340       -0.43250       -0.34881
C          5.98031        0.71961       -0.49750
H          7.05867        0.64576       -0.58693
C          5.33470        1.97018       -0.52909
C          3.96459        2.05292       -0.42382
C          3.31555        3.38859       -0.45898
O          3.95553        4.41810       -0.53043
N          1.92114        3.40330       -0.42421
C          1.26134        4.70643       -0.51531
C          1.10007        2.28210       -0.30158
O         -0.10829        2.39840       -0.33500
C          1.77340        0.95408       -0.15354
C          3.18313        0.88289       -0.27334
C          3.83740       -0.36703       -0.22742
H          1.14853       -2.37146        0.24705
H          5.08432       -4.94740        0.03816
H          6.55867       -4.16825        0.68932
H          6.34805       -4.32398       -1.06485
H          5.90312        2.88772       -0.63497
H          1.89720        5.37468       -1.09241
H          1.11233        5.12372        0.48408
H          0.29486        4.57149       -0.99632
