30
COMP52_310000.log	Energy: -1645992.7478099
C         -1.48151       -0.07183       -0.21019
C         -0.10984        0.39323       -0.14424
C          0.38998        1.67997       -0.16987
C         -0.38401        2.87115       -0.27323
N         -1.00385        3.84748       -0.35308
C          1.81192        1.69176       -0.11026
F          2.49834        2.83179       -0.13195
C          2.40510        0.46523       -0.04035
S          1.17096       -0.76557       -0.02092
C          3.82012        0.16262        0.02328
S          5.05765        1.39066        0.01630
C          6.31121        0.22913        0.10961
H          7.34691        0.53705        0.13417
C          5.83199       -1.05331        0.14528
C          6.64007       -2.22644        0.21893
N          7.29706       -3.17879        0.27806
C          4.40793       -1.06886        0.09563
F          3.71617       -2.20616        0.11922
C         -1.91372       -1.28300       -0.69608
H         -1.26818       -2.03378       -1.13826
N         -3.25025       -1.51692       -0.62404
C         -3.86205       -0.49437       -0.08955
S         -2.84623        0.83447        0.36912
C         -5.29986       -0.43320        0.11913
S         -6.33805       -1.74721       -0.34190
C         -7.67426       -0.83403        0.24142
H         -8.68314       -1.21884        0.19609
C         -7.24884        0.36676        0.72913
H         -7.89016        1.12879        1.15374
N         -5.90162        0.58961        0.65842
