29
COMP22_110300.log	Energy: -1520621.4382849
C          1.99201        0.15195        0.06038
C          0.55471       -0.03247        0.26672
C         -0.03732       -0.93298        1.10508
F          0.61887       -1.74159        1.92438
C         -1.45454       -0.90076        1.06600
F         -2.19345       -1.67445        1.84864
C         -1.95282        0.01341        0.18224
S         -0.65650        0.84648       -0.61708
C         -3.34666        0.29359       -0.10387
S         -3.95822        1.90885       -0.32443
C         -5.56037        1.33907       -0.61114
H         -6.36979        2.02226       -0.82104
C         -5.61941       -0.01356       -0.52263
F         -6.71498       -0.74634       -0.68978
C         -4.35942       -0.61207       -0.23817
F         -4.21142       -1.92670       -0.14458
C          2.80699       -0.98599       -0.25539
N          2.36681       -2.23583       -0.39965
S          3.66554       -3.13915       -0.75475
N          4.82830       -2.00594       -0.75054
C          4.22136       -0.85303       -0.46105
C          4.84757        0.41784       -0.37211
H          5.91382        0.51874       -0.53424
C          4.06086        1.49864       -0.08343
C          4.66955        2.79625        0.01088
N          5.18329        3.83203        0.07910
C          2.63525        1.37032        0.14183
C          1.90469        2.55490        0.49294
N          1.33261        3.51992        0.78227
