33
COMP27_030000.log	Energy: -1320188.4918602
C          3.29778        0.55080       -0.20480
C          1.86331        0.76161        0.01199
C          1.22931        1.90406        0.47600
C          1.90660        3.07946        0.92526
N          2.43086        4.04812        1.28867
C         -0.18826        1.79447        0.51992
H         -0.82887        2.58212        0.89724
C         -0.63965        0.57782        0.08273
S          0.68738       -0.45111       -0.35138
C         -2.00576        0.08803       -0.02675
C         -3.08806        0.88293       -0.06090
C         -4.45889        0.39287       -0.09904
C         -4.95184       -0.84054        0.23528
H         -4.34720       -1.64898        0.62731
C         -6.36327       -0.93985        0.04629
C         -7.12277       -2.11891        0.32628
N         -7.73157       -3.07853        0.55430
C         -6.92468        0.22299       -0.41758
H         -7.96775        0.40841       -0.63152
S         -5.74298        1.44019       -0.63394
C          3.90384       -0.74311       -0.04218
N          3.27515       -1.87087        0.28620
S          4.40882       -3.03749        0.33647
N          5.72898       -2.17419       -0.05072
C          5.32058       -0.91798       -0.23802
C          6.14428        0.18596       -0.59871
H          7.20857        0.03943       -0.74116
C          5.54070        1.39727       -0.75805
H          6.12983        2.26392       -1.03967
C          4.13549        1.57541       -0.57352
H          3.72706        2.56554       -0.74067
H         -2.13321       -0.99037       -0.09597
H         -2.95606        1.96301       -0.06845
