46
COMP77_310002.log	Energy: -1959529.6876725
C         -1.15715       -1.63224        0.53665
C          0.14609       -0.99076        0.63411
C          0.50664        0.06516        1.41955
F         -0.31465        0.67858        2.25229
C          1.86794        0.45954        1.30201
C          2.40985        1.53950        2.05417
N          2.86261        2.41616        2.66399
C          2.56709       -0.33156        0.40263
S          1.51992       -1.52596       -0.27884
C          3.95108       -0.31574       -0.03125
C          4.89129        0.55699        0.38138
C          6.27668        0.57089       -0.05089
C          6.98427       -0.23770       -0.92703
C          6.45855       -1.34662       -1.64702
N          6.02582       -2.25022       -2.23173
C          8.34932        0.16389       -1.04046
F          9.19359       -0.48596       -1.83218
C          8.68335        1.23899       -0.28286
H          9.64778        1.71767       -0.20472
S          7.31583        1.79326        0.60113
C         -2.39067       -1.07516        0.28584
C         -2.64991        0.35764       -0.03869
O         -1.75916        1.18664       -0.10777
C         -4.06861        0.67090       -0.28482
C         -4.53403        1.92393       -0.57639
O         -3.80036        3.02505       -0.68428
C         -4.44497        4.24750       -0.99790
S         -6.28176        1.94308       -0.80044
C         -6.36197        0.21155       -0.49082
O         -7.50871       -0.45792       -0.51627
C         -8.70581        0.24944       -0.79016
C         -5.12840       -0.31946       -0.23530
C         -4.87257       -1.73815        0.05137
O         -5.73176       -2.60243        0.08622
C         -3.43998       -2.05193        0.30025
C         -2.99075       -3.31594        0.54721
H         -3.59095       -4.21429        0.59457
S         -1.29648       -3.34746        0.78489
H          4.21207       -1.08695       -0.74985
H          4.62995        1.32971        1.09798
H         -3.65666        4.99825       -1.02740
H         -5.17707        4.51520       -0.22647
H         -4.93565        4.19153       -1.97714
H         -9.50041       -0.49482       -0.76445
H         -8.66937        0.71321       -1.78336
H         -8.89337        1.01394       -0.02641
