51
COMP88_000002.log	Energy: -1182099.0023450
C          2.33613       -0.74259       -0.03420
C          3.76604       -1.05302        0.01379
C          4.83330       -0.19254       -0.04200
O          4.72883        1.16000       -0.15597
C          5.94701        1.76887       -0.57024
C          7.11762        1.21682        0.22358
O          7.28283       -0.17194       -0.03006
C          6.10459       -0.84986        0.02577
C          5.99505       -2.20134        0.12794
H          6.79698       -2.92079        0.20104
S          4.34300       -2.69180        0.15374
C          1.40175       -1.69479       -0.46594
C          0.03734       -1.42622       -0.51023
C         -0.43609       -0.17103       -0.12251
C         -1.75332        0.49509       -0.08045
C         -1.44870        1.95082        0.25526
O         -2.15469        2.93786        0.25594
N         -0.11248        1.96836        0.58300
O          0.56776        3.12200        0.83939
C          0.87454        3.81068       -0.37771
C          0.52889        0.77205        0.28006
C          1.88126        0.52903        0.35233
C         -3.02293        0.01150       -0.18596
C         -3.33175       -1.47631       -0.25919
O         -2.61665       -2.43596       -0.45508
N         -4.68349       -1.57680        0.00530
O         -5.37165       -2.72794       -0.27391
C         -5.34929       -3.59923        0.85678
C         -5.32041       -0.33991       -0.04392
C         -6.67993       -0.10342       -0.01740
C         -7.09431        1.22644       -0.08882
H         -8.15591        1.45454       -0.07360
C         -6.16287        2.25569       -0.18998
C         -4.79336        1.99200       -0.21785
C         -4.34519        0.67256       -0.13409
H          5.82629        2.83969       -0.39612
H          6.10328        1.59070       -1.64190
H          6.95277        1.38436        1.29621
H          8.05102        1.69746       -0.07553
H          1.74640       -2.66874       -0.80025
H         -0.65152       -2.18188       -0.85382
H          1.44157        4.68921       -0.06731
H         -0.04456        4.11775       -0.88394
H          1.48749        3.18042       -1.03174
H          2.56240        1.29644        0.69575
H         -5.94445       -4.46302        0.55645
H         -5.80040       -3.11452        1.72923
H         -4.32470       -3.90919        1.07854
H         -7.38309       -0.92636        0.03751
H         -6.50192        3.28447       -0.25630
H         -4.08143        2.79761       -0.30489
