29
COMP22_420200.log	Energy: -2403832.1162493
C          2.05063        0.08375        0.02636
C          0.63270       -0.28154        0.16541
C          0.10160       -1.33123        0.88602
O          0.76251       -2.22048        1.64694
C         -1.32360       -1.39190        0.78736
Cl        -2.23463       -2.58338        1.63791
C         -1.86414       -0.43416       -0.02348
S         -0.62393        0.57203       -0.68629
C         -3.26431       -0.22270       -0.38092
S         -4.12835       -1.38291       -1.33806
C         -5.56431       -0.42821       -1.31071
H         -6.46150       -0.77259       -1.80687
C         -5.39279        0.72751       -0.60694
O         -6.29437        1.70601       -0.37348
C         -4.06801        0.84221       -0.07729
Cl        -3.58478        2.19669        0.87530
C          3.02292       -0.94301       -0.23991
N          2.76816       -2.25221       -0.29515
S          4.17952       -2.99983       -0.62150
N          5.16056       -1.71222       -0.70423
C          4.40572       -0.63818       -0.46906
C          4.86228        0.70309       -0.42328
H          5.90325        0.93673       -0.60658
C          3.94929        1.66806       -0.12737
Cl         4.50361        3.31012       -0.04083
C          2.55337        1.36808        0.11179
Cl         1.51901        2.68745        0.54396
H          1.54937       -2.50799        1.14833
H         -7.13579        1.46610       -0.77913
