29
COMP22_220300.log	Energy: -2425178.5464872
C          2.41501        0.22105       -0.12286
C          0.98281        0.16268        0.20720
C          0.40638       -0.45167        1.28394
Cl         1.29930       -1.24420        2.52422
C         -1.01646       -0.33499        1.29489
Cl        -2.00611       -0.97340        2.54729
C         -1.50307        0.35605        0.21818
S         -0.21481        0.87058       -0.81720
C         -2.89509        0.65711       -0.10314
S         -3.52746        2.26729        0.02739
C         -5.08817        1.76336       -0.47921
H         -5.90097        2.46998       -0.56711
C         -5.12865        0.42615       -0.73045
Cl        -6.54340       -0.40937       -1.25603
C         -3.86722       -0.21319       -0.51813
Cl        -3.60003       -1.89248       -0.78140
C          3.10931       -0.97274       -0.49908
N          2.56638       -2.18636       -0.59851
S          3.76355       -3.18254       -1.04984
N          5.00285       -2.13944       -1.14711
C          4.50809       -0.94381       -0.81850
C          5.23095        0.27783       -0.78244
H          6.28598        0.29918       -1.02780
C          4.55426        1.41434       -0.43297
C          5.26100        2.66385       -0.39199
N          5.85025        3.66068       -0.36886
C          3.14499        1.38851       -0.09738
C          2.51248        2.61597        0.29624
N          2.00465        3.60701        0.61508
