44
COMP72_220003.log	Energy: -2966521.6498083
C         -0.11451       -1.76670        0.15229
C          1.13333       -1.02549        0.32389
C          1.49207       -0.22335        1.37186
Cl         0.50232        0.05182        2.75092
C          2.78032        0.36753        1.20186
Cl         3.50128        1.41168        2.36517
C          3.38756        0.00530        0.03062
S          2.37214       -1.05919       -0.88198
C          4.69879        0.41335       -0.46890
S          4.94032        1.96379       -1.20737
C          6.60579        1.64813       -1.47925
H          7.24522        2.38040       -1.95117
C          6.96314        0.41405       -1.02995
Cl         8.56254       -0.22444       -1.14466
C          5.86775       -0.29826       -0.44858
Cl         6.01332       -1.87884        0.22065
C         -1.38235       -1.27439       -0.03549
C         -1.73242        0.15831       -0.21913
O         -0.90675        1.01877       -0.44014
C         -3.19929        0.43563       -0.17134
C         -3.76835        1.68506       -0.12496
C         -3.12376        3.01075        0.10695
O         -2.22984        3.21528        0.88418
O         -3.73690        3.95606       -0.62035
C         -3.25742        5.28702       -0.41020
S         -5.48486        1.59894       -0.22875
C         -5.46439       -0.12008       -0.26271
C         -6.75491       -0.86939       -0.19633
O         -6.98452       -1.76856        0.56803
O         -7.63937       -0.34989       -1.05764
C         -8.93494       -0.95651       -1.03425
C         -4.18069       -0.60749       -0.24943
C         -3.80338       -2.04464       -0.36747
O         -4.59241       -2.92217       -0.65288
C         -2.36486       -2.31072       -0.13335
C         -1.82774       -3.56201       -0.03104
H         -2.36041       -4.50139       -0.09087
S         -0.13555       -3.50059        0.21744
H         -3.86282        5.91984       -1.05743
H         -2.20126        5.35562       -0.67954
H         -3.38042        5.57404        0.63677
H         -9.51473       -0.43241       -1.79252
H         -9.39232       -0.84017       -0.04885
H         -8.85717       -2.01958       -1.27154
