41
COMP69_000013.log	Energy: -1310246.6126877
C          0.71800        0.79453        0.18021
C         -0.58455        0.19145        0.24784
C         -0.78777       -1.16354        0.48495
C         -2.13017       -1.53404        0.34131
C         -2.94222       -0.47297       -0.02007
S         -2.09397        1.00141       -0.15055
C         -4.29969       -0.94404       -0.14409
C         -4.33165       -2.29448        0.13067
C         -2.94756       -2.79810        0.46619
H         -2.61115       -3.57362       -0.23199
H         -2.89530       -3.22466        1.47472
C         -5.63610       -2.84228        0.02218
C         -6.55354       -1.89164       -0.33026
H         -7.61618       -2.02237       -0.48231
S         -5.85181       -0.31862       -0.53829
C          1.93253        0.14668        0.14125
C          2.51620       -1.18528        0.15365
O          2.04413       -2.28711        0.33465
N          3.92443       -0.91453       -0.08840
C          4.99634       -1.81390       -0.18089
O          6.12826       -1.44260       -0.38580
O          4.60885       -3.06961       -0.02270
C          5.65789       -4.03568       -0.11342
C          4.15288        0.45531       -0.24411
H          5.15033        0.80831       -0.45788
C          2.97718        1.09589       -0.09807
C          2.40240        2.42952       -0.18699
O          2.90183        3.51595       -0.31293
N          0.97624        2.17359       -0.01798
C          0.09732        3.21379        0.35906
O         -0.70086        3.12526        1.25915
O          0.28410        4.27399       -0.40965
C         -0.45401        5.43721       -0.02831
H          0.02938       -1.83719        0.71867
H         -5.89213       -3.88088        0.19437
H          5.17003       -4.99871        0.02775
H          6.40481       -3.86366        0.66487
H          6.13917       -3.98570       -1.09261
H         -0.11599        6.22285       -0.70174
H         -0.24124        5.69943        1.01014
H         -1.52544        5.26039       -0.14629
