42
COMP51_000130.log	Energy: -1864009.0321458
C          1.76563       -0.65395       -0.00169
C          0.32436       -0.50070        0.00149
C         -0.35907        0.67289        0.00707
H          0.10403        1.64872        0.01054
C         -1.78476        0.49661        0.01024
C         -2.78225        1.49295        0.00994
C         -2.37712        2.92966        0.02217
O         -1.24028        3.34442        0.08009
O         -3.43272        3.75020       -0.03797
C         -3.14109        5.14737       -0.01954
C         -4.12122        1.08068        0.00191
S         -5.54934        2.09575        0.00706
C         -6.57947        0.70069        0.00118
H         -7.65311        0.83889        0.00254
C         -5.91761       -0.47412       -0.00971
H         -6.39231       -1.44247       -0.02242
C         -4.48472       -0.29629       -0.00885
C         -3.48562       -1.29027       -0.00794
C         -3.88495       -2.72926       -0.03492
O         -5.01019       -3.15063       -0.18236
O         -2.83202       -3.54128        0.12292
C         -3.10602       -4.94156        0.08025
C         -2.14726       -0.87882        0.00711
S         -0.72676       -1.90282        0.00887
C          2.52778       -1.79550       -0.01044
F          2.01056       -3.01691       -0.01653
N          3.86777       -1.67392       -0.01278
C          4.18688       -0.40644       -0.00585
S          2.85505        0.70103        0.00433
C          5.55783        0.06995       -0.00649
S          6.89777       -1.03185       -0.01655
C          7.96124        0.32168       -0.01100
H          9.03581        0.22194       -0.01439
C          7.21950        1.46420       -0.00218
F          7.73431        2.68316        0.00383
N          5.87402        1.33758        0.00040
H         -4.10779        5.64505       -0.08002
H         -2.51362        5.41580       -0.87232
H         -2.62477        5.41488        0.90502
H         -2.14052       -5.42883        0.20736
H         -3.55346       -5.21132       -0.87885
H         -3.78884       -5.21876        0.88635
