54
COMP81_400001.log	Energy: -1433307.5016312
C          0.04292        0.13178        0.12421
C          1.51048        0.14794        0.09583
C          2.32755       -0.88487       -0.25283
O          1.90250       -2.10842       -0.66434
C          3.74247       -0.57320       -0.19502
C          4.85290       -1.38554       -0.46990
C          4.78454       -2.82781       -0.89834
C          6.09709       -0.77594       -0.32226
S          7.61739       -1.59967       -0.61151
C          8.50478       -0.15784       -0.20007
H          9.58678       -0.16284       -0.23095
C          7.70667        0.88217        0.13396
O          8.12993        2.12258        0.49730
C          6.28789        0.57070        0.07733
C          5.17687        1.38254        0.35168
C          5.24493        2.82371        0.78428
C          3.93294        0.77351        0.20292
S          2.41516        1.59689        0.49581
C         -0.70820        1.19723       -0.38688
C         -2.09933        1.18547       -0.37710
C         -2.78869        0.08992        0.14928
C         -4.20904       -0.29876        0.27577
C         -4.17508       -1.67968        0.91924
O         -5.08073       -2.40984        1.26743
N         -2.84852       -1.98201        1.10912
H         -2.56036       -2.83904        1.55420
C         -2.01330       -0.97573        0.65171
C         -0.63132       -0.97863        0.66109
C         -5.36871        0.34489       -0.04328
C         -5.41947        1.81613       -0.44203
O         -4.52774        2.63555       -0.54174
N         -6.74315        2.11205       -0.64247
H         -7.04333        3.03673       -0.90737
C         -7.56243        1.00727       -0.45573
C         -8.93332        0.94710       -0.62816
C         -9.55702       -0.28226       -0.42236
H        -10.63233       -0.36321       -0.54949
C         -8.81219       -1.40190       -0.06430
C         -7.43133       -1.32300        0.11049
C         -6.77820       -0.10192       -0.07359
H          0.94939       -2.06108       -0.82744
H          3.76552       -3.20733       -0.91019
H          5.38105       -3.45220       -0.22172
H          5.20764       -2.94673       -1.90373
H          9.09420        2.14006        0.47787
H          6.26516        3.19954        0.80878
H          4.80963        2.94159        1.78455
H          4.65965        3.45242        0.10185
H         -0.19317        2.05095       -0.81593
H         -2.64660        2.02702       -0.77124
H         -0.08248       -1.79517        1.12190
H         -9.49872        1.82650       -0.92022
H         -9.30861       -2.35483        0.08699
H         -6.87049       -2.19673        0.40198
