34
COMP37_330000.log	Energy: -1367128.2280324
C         -3.45769       -0.32718        0.02992
C         -2.06465        0.13648       -0.04943
C         -1.62589        1.42152       -0.26132
C         -2.50658        2.52363       -0.48267
N         -3.22916        3.40844       -0.67429
C         -0.19708        1.53212       -0.26847
C          0.47173        2.77269       -0.47872
N          1.03092        3.77433       -0.64881
C          0.43776        0.31997       -0.06324
S         -0.73213       -0.93798        0.13992
C          1.84296       -0.04675        0.00238
C          2.88065        0.80102       -0.13108
C          4.28607        0.43477       -0.06237
C          4.92078       -0.76546        0.20562
C          4.25063       -1.98860        0.49812
N          3.69149       -2.97689        0.73392
C          6.35266       -0.65902        0.16641
C          7.24277       -1.75050        0.40749
N          7.96981       -2.63122        0.60163
C          6.77515        0.60838       -0.12668
H          7.79678        0.94987       -0.21632
S          5.46086        1.67604       -0.35550
C         -3.93503       -1.33367       -0.81216
F         -3.11890       -1.89607       -1.70327
C         -5.25497       -1.75714       -0.74285
F         -5.67042       -2.71536       -1.56798
C         -6.13190       -1.19079        0.16763
H         -7.16220       -1.52126        0.22006
C         -5.66890       -0.19415        1.01032
F         -6.48523        0.36243        1.90094
C         -4.34817        0.23255        0.94914
F         -3.93447        1.17871        1.78641
H          2.02859       -1.10218        0.17479
H          2.69496        1.85550       -0.30946
