48
COMP92_010002.log	Energy: -1554985.2783421
C          0.24067       -0.26232        0.34445
C         -1.21204       -0.47909        0.52201
C         -1.83208       -1.00988        1.61379
H         -1.33373       -1.27406        2.53782
C         -3.23123       -1.12896        1.41147
F         -4.03991       -1.58789        2.36452
C         -3.67720       -0.73067        0.18302
S         -2.32775       -0.18668       -0.77049
C         -5.03703       -0.76587       -0.32329
S         -5.76882        0.55848       -1.18272
C         -7.25229       -0.29831       -1.36720
H         -8.07900        0.15958       -1.89198
C         -7.21260       -1.53111       -0.79043
H         -8.02802       -2.24257       -0.78055
C         -5.94402       -1.78256       -0.20434
F         -5.66293       -2.93735        0.39759
C          1.03360       -1.42676        0.19089
C          2.38597       -1.35063       -0.02234
C          3.16489       -2.61024       -0.17959
O          2.67875       -3.71367       -0.08807
N          4.52963       -2.42761       -0.43216
O          5.23960       -3.56097       -0.72047
C          5.81812       -4.11696        0.46189
C          5.23686       -1.22200       -0.52549
O          6.43084       -1.20427       -0.71867
C          4.41298        0.00598       -0.35286
C          5.02212        1.23653       -0.43645
H          6.08892        1.28434       -0.62600
C          4.26119        2.40774       -0.27731
C          2.90874        2.33420       -0.03008
C          2.15351        3.60201        0.14191
O          2.64907        4.70057        0.03303
N          0.80131        3.43142        0.44159
O          0.12622        4.56818        0.79437
C         -0.53094        5.14085       -0.33714
C          0.07902        2.23505        0.58133
O         -1.08498        2.26413        0.90214
C          0.85346        0.98496        0.30406
C          2.25226        1.08091        0.06127
C          3.02245       -0.09210       -0.10847
H          0.55932       -2.40166        0.23225
H          6.34501       -5.00656        0.11589
H          5.03868       -4.40094        1.17495
H          6.52754       -3.41427        0.90871
H          4.72367        3.38646       -0.34471
H         -1.02734        6.02851        0.05573
H         -1.27439        4.44746       -0.74162
H          0.19901        5.42885       -1.09930
