56
COMP91_300031.log	Energy: -1736323.5670778
C         -1.71658       -0.26608       -0.15825
C         -0.23620       -0.19262       -0.13600
C          0.50467        0.95108       -0.19795
C         -0.16870        2.20498       -0.07991
N         -0.80778        3.16200        0.06586
C          1.93606        0.69533       -0.20649
C          3.02252        1.58383       -0.23285
C          2.90342        3.05225       -0.46994
O          3.67616        3.86771       -0.01918
O          1.90072        3.33932       -1.29346
C          1.63840        4.73099       -1.50602
C          4.30706        1.05735       -0.09149
S          5.78552        1.99374       -0.04516
C          6.72088        0.54822        0.00150
H          7.80171        0.60448        0.00421
C          5.98880       -0.59841        0.02453
C          6.63078       -1.87139       -0.07226
N          7.20282       -2.86929       -0.21575
C          4.55952       -0.33293        0.00199
C          3.47774       -1.22303        0.01230
C          3.68172       -2.67319        0.32001
O          4.42651       -3.07371        1.17799
O          2.90225       -3.45710       -0.43302
C          3.00233       -4.85987       -0.15658
C          2.19309       -0.69658       -0.11366
S          0.71383       -1.63430       -0.12052
C         -2.32768       -0.47767       -1.41498
C         -3.69352       -0.50376       -1.54052
C         -4.30021       -0.72404       -2.88253
O         -3.65199       -0.90194       -3.89124
N         -5.68827       -0.71542       -2.90905
H         -6.11388       -0.86302       -3.81721
C         -6.57062       -0.52932       -1.85039
O         -7.76978       -0.54877       -2.02570
C         -5.93333       -0.31219       -0.52283
C         -6.72356       -0.11133        0.58440
H         -7.80203       -0.11617        0.46765
C         -6.13130        0.09942        1.84318
C         -4.76228        0.10315        1.97801
C         -4.16965        0.33162        3.32137
O         -4.82145        0.52284        4.32524
N         -2.78294        0.30489        3.35915
H         -2.36181        0.44378        4.27086
C         -1.88887        0.08898        2.32069
O         -0.69702        0.04689        2.53941
C         -2.50341       -0.09524        0.97062
C         -3.91996       -0.10304        0.85388
C         -4.52011       -0.30891       -0.40928
H          0.76039        4.76205       -2.14814
H          2.49727        5.20354       -1.98677
H          1.42853        5.22131       -0.55381
H          2.30856       -5.34029       -0.84446
H          2.72629       -5.06224        0.88044
H          4.02459       -5.20085       -0.33189
H         -1.71499       -0.61077       -2.30086
H         -6.74028        0.26432        2.72554
