36
COMP47_240000.log	Energy: -1959962.5528220
C         -2.79639       -0.74170       -0.23711
C         -1.53207       -0.04879       -0.17656
C         -1.25414        1.29293       -0.38137
O         -2.09805        2.28725       -0.62649
C          0.15590        1.54366       -0.38535
Cl         0.77186        3.13747       -0.62824
C          0.94061        0.43903       -0.18028
S         -0.05653       -0.96435        0.04748
C          2.38641        0.40195       -0.10956
C          3.11300       -0.71796        0.06092
C          4.55705       -0.82747        0.14889
C          5.57463        0.09684        0.16684
Cl         5.39555        1.82305        0.08678
C          6.88580       -0.46658        0.27267
O          8.02895        0.24694        0.30902
C          6.85230       -1.82859        0.33515
H          7.69706       -2.49606        0.41641
S          5.23988       -2.42182        0.26632
C         -4.08965       -0.34113        0.00118
C         -4.79308        0.86171        0.47103
O         -4.35538        1.97508        0.73070
N         -6.13083        0.50993        0.57999
C         -7.17495        1.41525        1.01294
C         -6.38796       -0.82467        0.20998
O         -7.47871       -1.33905        0.22419
C         -5.05932       -1.36907       -0.15947
C         -4.54751       -2.56646       -0.52504
H         -5.05446       -3.50683       -0.69073
S         -2.83134       -2.43754       -0.70514
H         -2.94159        2.19126       -0.11898
H          2.86766        1.36723       -0.21138
H          2.59110       -1.67095        0.14306
H          7.81545        1.18917        0.25670
H         -6.71877        2.38947        1.18943
H         -7.63449        1.04663        1.93317
H         -7.94265        1.49557        0.24002
