42
COMP26_000300.log	Energy: -942306.1884389
C         -1.89579       -0.25901       -0.14532
C         -0.43497       -0.42778       -0.30044
C          0.44302        0.40430        0.40926
C          1.80547        0.22545        0.26694
C          2.93294        0.98871        0.94556
C          2.89817        2.48039        0.57310
C          2.88095        0.81624        2.47266
C          4.15233        0.29794        0.35244
C          5.49373        0.55539        0.59191
C          6.45659       -0.21060       -0.06540
H          7.51057       -0.02029        0.11389
C          6.07911       -1.22105       -0.95084
C          4.73348       -1.48294       -1.19409
C          3.77564       -0.71740       -0.53715
C          2.30943       -0.76429       -0.58950
C          1.44680       -1.58383       -1.30788
C          0.07575       -1.41269       -1.15533
C         -2.50155        1.03419       -0.30624
N         -1.85217        2.16241       -0.60184
S         -2.97455        3.33041       -0.69336
N         -4.31833        2.47760       -0.37092
C         -3.92122        1.21881       -0.17694
C         -4.76956        0.11963        0.12122
H         -5.83869        0.26095        0.22098
C         -4.18695       -1.10647        0.27644
C         -5.02148       -2.23452        0.58573
N         -5.71837       -3.12599        0.83335
C         -2.75512       -1.29865        0.14916
C         -2.24321       -2.62075        0.37947
N         -1.85757       -3.69570        0.57509
H          0.05005        1.17120        1.07003
H          1.98008        2.94888        0.94442
H          2.93840        2.61348       -0.51203
H          3.75093        3.00532        1.01733
H          1.96810        1.26379        2.88116
H          3.73866        1.30879        2.94364
H          2.89882       -0.24278        2.74694
H          5.79586        1.33929        1.28181
H          6.84180       -1.80814       -1.45348
H          4.44169       -2.27058       -1.88311
H          1.82655       -2.34814       -1.97904
H         -0.60622       -2.04290       -1.71726
