55
COMP76_000022.log	Energy: -1435783.2147455
C         -0.33394        2.10060       -0.19430
C          1.06025        1.65541       -0.37551
C          1.59201        0.66612        0.46480
C          2.88912        0.25326        0.26328
C          3.65185       -0.83354        1.02682
O          3.77842       -0.56844        2.39670
C          4.42221        0.64025        2.73127
O          3.02057       -2.07832        1.03067
C          2.58576       -2.55086       -0.23001
C          4.99144       -0.83393        0.28238
C          6.09233       -1.63522        0.52150
C          7.22692       -1.46065       -0.27400
H          8.10602       -2.07556       -0.10551
C          7.24117       -0.50020       -1.28540
C          6.12608        0.30356       -1.52592
C          4.99969        0.12853       -0.73177
C          3.68595        0.80467       -0.74667
C          3.17995        1.80440       -1.56425
C          1.86397        2.22429       -1.36931
C         -1.50252        1.37407       -0.13480
C         -1.63192       -0.09338       -0.36039
O         -0.68654       -0.81397       -0.63488
C         -3.01064       -0.60667       -0.23778
C         -3.34666       -1.92642       -0.36332
O         -2.51128       -2.92704       -0.62379
C         -3.01830       -4.24916       -0.64743
S         -5.07535       -2.19037       -0.14497
C         -5.32694       -0.46741        0.11763
O         -6.52935        0.04278        0.36390
C         -7.64565       -0.82830        0.39293
C         -4.15784        0.23573        0.04001
C         -4.04396        1.69231        0.20869
O         -4.98810        2.43430        0.42269
C         -2.65332        2.20414        0.09634
C         -2.34617        3.52803        0.19946
H         -3.04225        4.33795        0.36869
S         -0.66132        3.79111        0.03132
H          0.98457        0.21584        1.24229
H          4.40869        0.69645        3.82109
H          3.89514        1.51204        2.32126
H          5.46331        0.66120        2.38281
H          2.24843       -3.57508       -0.06179
H          3.40351       -2.56124       -0.96372
H          1.75133       -1.95718       -0.62012
H          6.06542       -2.37984        1.31144
H          8.13189       -0.37685       -1.89448
H          6.14428        1.04747       -2.31746
H          3.78137        2.24678       -2.35306
H          1.44388        2.98606       -2.02020
H         -2.16288       -4.89031       -0.85654
H         -3.76722       -4.36970       -1.44009
H         -3.45335       -4.52148        0.32178
H         -8.50704       -0.19803        0.61049
H         -7.53688       -1.58323        1.18141
H         -7.78632       -1.31954       -0.57767
