59
COMP85_000000.log	Energy: -947186.9348310
C          1.08793        0.38771       -0.18639
C          2.56800        0.45398       -0.26197
C          3.33384       -0.60439        0.22711
C          4.72160       -0.51777        0.14258
N          5.68739       -1.41843        0.56064
C          5.47465       -2.70648        1.17144
C          6.93393       -0.89968        0.25982
C          8.19143       -1.46070        0.48262
C          9.30092       -0.72737        0.08299
H         10.29284       -1.13976        0.24237
C          9.16694        0.53022       -0.52309
C          7.91156        1.08042       -0.74300
C          6.78086        0.36308       -0.35165
C          5.35742        0.60904       -0.42550
C          4.58100        1.66060       -0.91110
C          3.20063        1.57952       -0.82674
C          0.40855       -0.80456       -0.45531
C         -0.97808       -0.89945       -0.37323
C         -1.73118        0.21876       -0.01386
C         -3.16930        0.52014        0.11612
C         -3.22085        2.00129        0.46335
O         -4.17953        2.71259        0.70134
N         -1.92081        2.44311        0.52547
C         -1.55594        3.79997        0.84609
C         -1.03048        1.41910        0.22589
C          0.34481        1.52641        0.15550
C         -4.28374       -0.25777        0.00560
C         -4.22672       -1.77557       -0.06936
O         -3.26628       -2.52291       -0.02565
N         -5.52437       -2.22133       -0.14613
C         -5.88493       -3.61476       -0.21319
C         -6.41880       -1.15752       -0.15460
C         -7.79490       -1.24194       -0.27194
C         -8.51669       -0.04855       -0.29397
H         -9.59837       -0.08153       -0.38499
C         -7.86168        1.17490       -0.20775
C         -6.47322        1.24265       -0.08563
C         -5.72449        0.06585       -0.04581
H          2.84351       -1.45800        0.68443
H          4.41132       -2.84984        1.36524
H          6.00810       -2.77196        2.12607
H          5.82061       -3.51440        0.51620
H          8.30371       -2.43451        0.94918
H         10.05595        1.07584       -0.82353
H          7.80940        2.05344       -1.21510
H          5.05231        2.53039       -1.35969
H          2.58994        2.38174       -1.22961
H          0.97440       -1.67944       -0.76023
H         -1.46801       -1.83807       -0.57832
H         -2.47706        4.34738        1.04836
H         -1.02948        4.26792        0.00699
H         -0.91306        3.82667        1.73232
H          0.84346        2.46340        0.38170
H         -4.96261       -4.19454       -0.16600
H         -6.40682       -3.83472       -1.15096
H         -6.53069       -3.88696        0.62855
H         -8.29341       -2.20238       -0.35175
H         -8.43332        2.09717       -0.23122
H         -5.98022        2.19851       -0.00545
