28
COMP32_140000.log	Energy: -1306005.7496489
C         -2.33644       -0.06890       -0.03367
C         -0.92036        0.28647       -0.15494
C         -0.40361        1.49430       -0.51110
F         -1.12043        2.56547       -0.87763
C          1.01100        1.57406       -0.49311
O          1.70745        2.68812       -0.82209
C          1.59614        0.39296       -0.11446
S          0.37532       -0.81309        0.21240
C          3.01036        0.11134        0.00564
S          4.24152        1.30781       -0.33757
C          5.51696        0.20727        0.03367
H          6.55422        0.49915       -0.03395
C          5.01307       -0.99569        0.39550
F          5.72762       -2.07717        0.74699
C          3.59296       -1.07007        0.38600
O          2.89355       -2.18136        0.71567
C         -2.85634       -1.25365       -0.56184
F         -2.05571       -2.10759       -1.20112
C         -4.20334       -1.56727       -0.44070
F         -4.65030       -2.70903       -0.96585
C         -5.07873       -0.70942        0.20368
H         -6.12988       -0.95377        0.29431
C         -4.57720        0.46739        0.73343
F         -5.38886        1.31326        1.36962
C         -3.22906        0.78149        0.62618
F         -2.79161        1.91247        1.17792
H          1.08144        3.39250       -1.03627
H          3.51784       -2.88587        0.93469
