32
COMP57_220200.log	Energy: -3184660.0348237
C         -2.06601       -0.04779        0.57628
C         -0.69365        0.44131        0.53848
C         -0.23582        1.71294        0.75567
Cl        -1.25093        3.03565        1.18827
C          1.17778        1.83203        0.60705
Cl         2.01613        3.32131        0.84090
C          1.79635        0.64982        0.27885
S          0.61990       -0.61691        0.13037
C          3.21718        0.44267        0.07506
C          3.79299       -0.75959       -0.10251
C          5.20147       -1.04142       -0.32301
C          6.29308       -0.24430       -0.58205
Cl         6.25711        1.47336       -0.73937
C          7.50708       -0.98455       -0.73777
Cl         9.03423       -0.25103       -1.06829
C          7.33435       -2.32683       -0.60021
H          8.09018       -3.09529       -0.67032
S          5.69468       -2.71068       -0.27783
C         -2.63001       -0.98762        1.40243
Cl        -1.78411       -1.79580        2.67098
N         -3.94029       -1.27578        1.20684
C         -4.40961       -0.56034        0.22129
S         -3.28003        0.50862       -0.53398
C         -5.79191       -0.63534       -0.22528
S         -6.93455       -1.69423        0.53816
C         -8.12830       -1.13025       -0.56259
H         -9.14608       -1.49085       -0.54572
C         -7.57529       -0.20686       -1.40011
Cl        -8.44092        0.60348       -2.65615
N         -6.25877        0.07526       -1.21412
H          3.81279        1.34761        0.08334
H          3.16276       -1.64826       -0.07128
