43
COMP41_300022.log	Energy: -1594618.7481851
C          2.25167        0.95522       -0.48684
C          0.82621        0.67582       -0.35136
C         -0.16106        1.51431        0.10815
C          0.09291        2.83569        0.58404
N          0.30863        3.91626        0.94628
C         -1.47215        0.90368        0.08811
C         -2.70652        1.43264        0.48483
O         -2.82425        2.68859        0.99387
C         -3.03462        3.70942        0.01792
C         -3.81751        0.60439        0.38548
S         -5.44522        1.04808        0.84270
C         -6.02797       -0.50859        0.37169
H         -7.07882       -0.74525        0.47285
C         -5.06001       -1.34204       -0.09848
C         -5.34169       -2.67833       -0.51696
N         -5.59349       -3.76613       -0.82905
C         -3.74844       -0.72283       -0.10019
C         -2.51742       -1.25010       -0.49884
O         -2.40021       -2.50571       -1.00713
C         -2.16116       -3.52424       -0.03260
C         -1.40507       -0.42098       -0.39992
S          0.21428       -0.87792       -0.84117
C          3.32310        0.13947       -0.24163
C          3.56468       -1.22513        0.30791
O          2.80475       -2.08309        0.67816
N          4.96694       -1.31506        0.33263
O          5.59609       -2.48337        0.62305
C          5.93536       -2.54225        2.01159
C          5.66785       -0.20104       -0.16784
O          6.86369       -0.09825       -0.24651
C          4.57648        0.74438       -0.51633
C          4.48228        2.01508       -0.98481
H          5.27356        2.69840       -1.26119
S          2.83045        2.48930       -1.09287
H         -3.02970        4.65266        0.56330
H         -3.99818        3.57113       -0.48647
H         -2.22907        3.71701       -0.72374
H         -2.15049       -4.46603       -0.58019
H         -2.96336       -3.54821        0.71218
H         -1.19674       -3.36828        0.46436
H          6.42358       -3.50902        2.13712
H          5.03256       -2.49582        2.62799
H          6.62783       -1.73607        2.27125
