56
COMP91_000020.log	Energy: -1527708.7484755
C          0.93106       -0.12163       -0.02062
C         -0.54846       -0.10070        0.04006
C         -1.40233       -0.48376       -0.93605
H         -1.08413       -0.80078       -1.92205
C         -2.78211       -0.41259       -0.53142
C         -3.92429       -0.70421       -1.28115
O         -3.83039       -1.11292       -2.58372
C         -3.73903       -0.03514       -3.50912
C         -5.16108       -0.58115       -0.66010
S         -6.71953       -0.89323       -1.38610
C         -7.52114       -0.45528        0.10089
H         -8.60179       -0.48801        0.14580
C         -6.67457       -0.10173        1.09287
H         -6.99163        0.21353        2.07939
C         -5.29254       -0.16862        0.68810
C         -4.14825        0.12429        1.43697
O         -4.23656        0.53719        2.73917
C         -4.33077       -0.53520        3.66905
C         -2.91346        0.00529        0.81443
S         -1.35802        0.32611        1.53932
C          1.54445       -1.39861        0.02339
C          2.90941       -1.54109        0.01530
C          3.50506       -2.90490        0.06138
O          2.81705       -3.90557        0.08362
N          4.90125       -2.97396        0.07822
C          5.53572       -4.29005        0.12112
C          5.76413       -1.87687        0.04281
O          6.96837       -2.03965        0.05015
C          5.14310       -0.52686       -0.00498
C          5.94314        0.59277       -0.03341
H          7.02062        0.46960       -0.01867
C          5.35950        1.87143       -0.07958
C          3.98972        2.01619       -0.10160
C          3.41385        3.38494       -0.15160
O          4.11359        4.37901       -0.15249
N          2.02389        3.46492       -0.20677
C          1.40649        4.78631       -0.30693
C          1.14356        2.37776       -0.24109
O         -0.04282        2.57731       -0.39847
C          1.73154        1.01309       -0.08829
C          3.14441        0.88144       -0.07363
C          3.73677       -0.39894       -0.01984
H         -3.65393       -0.48655       -4.49875
H         -2.85544        0.58281       -3.30731
H         -4.63546        0.59539       -3.46808
H         -4.40031       -0.07960        4.65798
H         -3.44274       -1.17733        3.62162
H         -5.22418       -1.14320        3.48032
H          0.92099       -2.28517        0.07110
H          4.75188       -5.03633        0.22539
H          6.22590       -4.33486        0.96497
H          6.09895       -4.45986       -0.79918
H          5.97485        2.76438       -0.09755
H          2.19002        5.52943       -0.17982
H          0.64512        4.89084        0.46745
H          0.92873        4.90302       -1.28217
