37
COMP21_400100.log	Energy: -1471942.3328814
C         -2.38779        0.42069       -0.14400
C         -0.92662        0.29972       -0.10202
C         -0.13828       -0.79243       -0.37101
O         -0.56190       -2.01099       -0.75324
C          1.28692       -0.53446       -0.24416
C          2.37074       -1.40441       -0.45353
C          2.26593       -2.84010       -0.89726
C          3.63181       -0.85852       -0.22500
S          5.12335       -1.76090       -0.41770
C          6.05538       -0.36651        0.05234
H          7.13519       -0.42940        0.09536
C          5.29350        0.71456        0.33674
O          5.75718        1.93096        0.73076
C          3.86691        0.47733        0.18864
C          2.78540        1.34631        0.39059
C          2.89872        2.78418        0.82412
C          1.52398        0.79818        0.16442
S          0.04465        1.70102        0.35569
C         -3.29190       -0.64594        0.21582
N         -2.93233       -1.87819        0.56838
S         -4.29424       -2.71807        0.89076
N         -5.39213       -1.55856        0.60249
C         -4.72502       -0.46644        0.23630
C         -5.31436        0.78003       -0.11088
H         -6.38557        0.93162       -0.09368
C         -4.45148        1.76254       -0.46250
F         -4.88950        2.96778       -0.81429
C         -3.02845        1.58660       -0.48476
F         -2.34583        2.66941       -0.85071
H         -1.41995       -2.20052       -0.32130
H          1.23609       -3.13965       -1.07124
H          2.69936       -3.50420       -0.13896
H          2.83479       -2.99069       -1.82315
H          6.72054        1.89938        0.76788
H          3.93348        3.09919        0.93667
H          2.38658        2.93476        1.78272
H          2.41406        3.44136        0.09138
