39
COMP25_000030.log	Energy: -930282.7905598
C          2.34289        0.33113        0.51165
C          0.98631       -0.25838        0.41890
C         -0.09578        0.58579        0.15101
C         -1.37427        0.04026        0.11558
N         -2.63204        0.64626       -0.12770
C         -2.92068        1.97581       -0.38417
O         -4.03229        2.40804       -0.58529
O         -1.81633        2.73372       -0.38094
C         -2.04332        4.11779       -0.64947
C         -3.62742       -0.35766       -0.05551
C         -5.00807       -0.26333       -0.21538
C         -5.74738       -1.43439       -0.08711
H         -6.82530       -1.38627       -0.20871
C         -5.14015       -2.66372        0.19027
C         -3.76397       -2.74584        0.34849
C         -3.00501       -1.58385        0.22531
C         -1.58203       -1.33198        0.33354
C         -0.49833       -2.16795        0.59065
C          0.77790       -1.63160        0.63119
C          3.50213       -0.31782       -0.04016
N          3.52426       -1.48609       -0.68514
S          5.06968       -1.75276       -1.11485
N          5.77653       -0.41811       -0.51098
C          4.80446        0.29785        0.05781
C          4.96731        1.55615        0.70425
H          5.95206        2.00369        0.77229
C          3.85265        2.14661        1.21930
H          3.93396        3.10337        1.72596
C          2.56225        1.53873        1.12472
H          1.72084        2.05076        1.58232
H          0.06991        1.63466       -0.04511
H         -1.05815        4.58181       -0.62046
H         -2.69590        4.55267        0.11066
H         -2.50024        4.24739       -1.63278
H         -5.48205        0.68350       -0.43017
H         -5.74949       -3.55743        0.28161
H         -3.28368       -3.69590        0.56313
H         -0.65289       -3.22916        0.76042
H          1.62679       -2.27499        0.82984
