37
COMP47_210003.log	Energy: -2108367.4702033
C          2.51440       -1.62304       -0.01362
C          1.06963       -1.69094        0.01230
C          0.29899       -2.82398        0.06706
F          0.81004       -4.05129        0.10784
C         -1.09572       -2.59566        0.07558
Cl        -2.23246       -3.89020        0.14254
C         -1.41009       -1.25843        0.02613
S          0.03128       -0.29005       -0.03057
C         -2.74214       -0.68927        0.01719
C         -3.00594        0.63003       -0.01894
C         -4.31005        1.26610       -0.03478
C         -5.59668        0.77867       -0.03924
Cl        -6.07209       -0.87969       -0.02718
C         -6.57957        1.80954       -0.05893
F         -7.87777        1.53223       -0.06652
C         -6.06515        3.06575       -0.06950
H         -6.60690        3.99949       -0.08476
S         -4.34767        3.00876       -0.05511
C          3.36445       -0.54365       -0.03911
C          3.24737        0.92794       -0.05525
O          2.26314        1.62264       -0.09416
N          4.59284        1.39881       -0.06711
C          4.97491        2.76360       -0.13373
O          5.89727        3.16231       -0.78985
O          4.18446        3.49741        0.64007
C          4.43189        4.90449        0.58742
C          5.55672        0.34246       -0.08353
O          6.74901        0.47374       -0.07081
C          4.73674       -0.88869       -0.06453
C          4.97435       -2.22294       -0.05572
H          5.91988       -2.74715       -0.06987
S          3.48271       -3.08804       -0.01783
H         -3.54609       -1.41538        0.04142
H         -2.17118        1.33021       -0.03867
H          3.69496        5.34970        1.25386
H          4.30356        5.27590       -0.43180
H          5.44606        5.12383        0.92807
