44
COMP61_100002.log	Energy: -1365712.7990559
C          2.01386        0.66921       -0.09114
C          0.59273        0.40827       -0.06692
C         -0.43313        1.23712        0.27049
F         -0.23865        2.48330        0.70385
C         -1.75048        0.66875        0.18317
C         -3.00216        1.25019        0.44567
C         -3.21410        2.67110        0.89570
C         -4.09590        0.41233        0.25758
S         -5.76077        0.90443        0.51635
C         -6.33250       -0.67415        0.06330
H         -7.38767       -0.90631        0.05775
C         -5.32569       -1.50811       -0.25787
F         -5.53851       -2.77439       -0.63624
C         -3.99909       -0.93937       -0.16576
C         -2.75077       -1.51892       -0.42480
C         -2.54050       -2.94055       -0.87262
C         -1.65286       -0.68070       -0.23916
S         -0.00031       -1.18586       -0.49219
C          3.06086       -0.19737        0.09171
C          3.36314       -1.55443        0.53453
O          2.69896       -2.53335        0.80272
N          4.79139       -1.52636        0.55757
O          5.55175       -2.57523        0.97970
C          5.62040       -3.58830       -0.02900
C          5.32761       -0.31325        0.20264
H          6.39873       -0.16881        0.21085
C          4.29597        0.51939       -0.09360
C          3.99162        1.88786       -0.47251
O          4.65919        2.83361       -0.82140
N          2.55922        1.92548       -0.34226
O          1.84225        2.86866       -1.03348
C          1.88955        4.13455       -0.36777
H         -2.28014        3.22007        0.98691
H         -3.71884        2.69188        1.86904
H         -3.85647        3.20392        0.18432
H         -3.47855       -3.48076       -0.97656
H         -1.91129       -3.47893       -0.15359
H         -2.02320       -2.96421       -1.83940
H          6.27420       -4.35453        0.38927
H          6.05462       -3.18427       -0.95034
H          4.62750       -4.00263       -0.21974
H          1.12643        4.73585       -0.86396
H          2.87517        4.58763       -0.49013
H          1.64844        4.01875        0.69129
