42
COMP72_300002.log	Energy: -1786474.2442530
C          0.16692       -1.89971       -0.28638
C         -1.19594       -1.52618        0.09630
C         -1.93103       -2.00314        1.15992
C         -1.41270       -2.93783        2.10905
N         -1.00414       -3.70194        2.87907
C         -3.24097       -1.44577        1.23699
H         -3.94236       -1.67744        2.02948
C         -3.49203       -0.56168        0.22491
S         -2.12887       -0.41924       -0.83731
C         -4.70538        0.20725       -0.01959
S         -6.26740       -0.45491        0.36501
C         -7.06871        0.96153       -0.16618
H         -8.14482        1.04852       -0.11352
C         -6.18046        1.89497       -0.63475
C         -6.58150        3.17053       -1.14204
N         -6.90189        4.20515       -1.55472
C         -4.82109        1.46231       -0.54892
H         -3.97701        2.07398       -0.84420
C          1.32074       -1.15251       -0.25650
C          1.43121        0.24450        0.25456
O          0.46953        0.85765        0.68640
C          2.79347        0.79862        0.19381
C          3.12549        2.05992        0.60735
O          2.29095        2.95907        1.11453
C          2.79994        4.22771        1.48999
S          4.84147        2.39380        0.39522
C          5.09545        0.78020       -0.26494
O          6.28928        0.36506       -0.67169
C          7.40987        1.20909       -0.47048
C          3.93605        0.05780       -0.31003
C          3.83247       -1.32580       -0.79909
O          4.76826       -1.97862       -1.22758
C          2.45661       -1.88616       -0.72694
C          2.14777       -3.16291       -1.09834
H          2.83657       -3.90664       -1.47528
S          0.48341       -3.49574       -0.88917
H          1.94645        4.78672        1.87076
H          3.22631        4.75015        0.62510
H          3.55607        4.12985        2.27837
H          8.26401        0.66865       -0.87587
H          7.56859        1.40173        0.59720
H          7.28944        2.15779       -1.00803
