44
COMP51_100330.log	Energy: -1979710.2832035
C         -1.68791       -0.81505        0.06072
C         -0.26170       -0.56291        0.06627
C          0.33459        0.65935        0.01069
F         -0.38076        1.77885       -0.09783
C          1.76965        0.65253       -0.00525
C          2.68287        1.71900       -0.03949
C          2.31882        3.15485        0.15235
O          2.87912        4.06540       -0.41460
O          1.37602        3.31445        1.07827
C          0.96754        4.66441        1.31538
C          4.02995        1.40813       -0.21004
S          5.33030        2.56205       -0.40541
C          6.49132        1.27203       -0.48415
H          7.53879        1.47983       -0.65131
C          5.93327        0.04988       -0.37896
F          6.62704       -1.07717       -0.49938
C          4.50186        0.06816       -0.19683
C          3.60004       -0.99257       -0.04073
C          4.07323       -2.38914        0.22093
O          5.01318       -2.67193        0.91848
O          3.27108       -3.28512       -0.36769
C          3.54094       -4.65867       -0.06693
C          2.23759       -0.68528       -0.01502
S          0.93355       -1.84953        0.05630
C         -2.37264       -2.01621        0.16095
C         -1.77157       -3.30745        0.30302
N         -1.28855       -4.35495        0.41698
N         -3.73774       -1.94493        0.12389
C         -4.12010       -0.70988       -0.00208
S         -2.85045        0.46799       -0.08599
C         -5.51829       -0.31383       -0.07119
S         -6.79362       -1.49572        0.01360
C         -7.92738       -0.22096       -0.13842
H         -8.99384       -0.39599       -0.14775
C         -7.27539        0.97911       -0.23955
C         -7.93843        2.24190       -0.37999
N         -8.49801        3.24951       -0.49294
N         -5.90555        0.92065       -0.20077
H          0.20222        4.60389        2.08732
H          0.55951        5.10289        0.40201
H          1.81545        5.26259        1.65581
H          2.73941       -5.22062       -0.54333
H          3.53650       -4.81785        1.01319
H          4.51322       -4.94530       -0.47315
