21
COMP14_100000.log	Energy: -1209669.1785872
C          1.68666        0.69027       -0.00017
C          0.27002        0.42068       -0.00014
C         -0.37395       -0.78897       -0.00018
F          0.23773       -1.96292       -0.00038
C         -1.78794       -0.68058       -0.00013
S         -3.11074       -1.79448       -0.00040
C         -4.24275       -0.47445        0.00056
H         -5.30748       -0.65768        0.00095
C         -3.62530        0.73559        0.00029
F         -4.25529        1.90841        0.00052
C         -2.20757        0.63270       -0.00001
S         -0.88833        1.74945       -0.00031
C          2.32976        1.86966       -0.00042
C          3.79900        1.77192       -0.00029
C          4.27536        0.52762        0.00010
H          5.29582        0.17115        0.00027
S          2.93111       -0.63938        0.00030
O          2.89145       -1.36139        1.26384
O          2.89169       -1.36205       -1.26287
H          1.82796        2.83106       -0.00073
H          4.42434        2.65743       -0.00049
