54
COMP91_100000.log	Energy: -1557861.8367994
C         -0.93877       -0.11767        0.02433
C          0.53800       -0.10360        0.07733
C          1.37894       -0.50853       -0.89472
F          0.92390       -0.91356       -2.08886
C          2.78502       -0.45946       -0.57162
C          3.90162       -0.79254       -1.34908
C          3.83795       -1.28678       -2.76965
C          5.13489       -0.63642       -0.72052
S          6.67547       -0.98799       -1.48368
C          7.53446       -0.52364       -0.04475
H          8.61289       -0.56572        0.00356
C          6.70154       -0.13147        0.93749
F          7.14733        0.26895        2.13576
C          5.29395       -0.17369        0.60978
C          4.17553        0.16119        1.38639
C          4.23758        0.66018        2.80546
C          2.94395        0.00578        0.75765
S          1.40636        0.35220        1.52542
C         -1.56204       -1.38435        0.14343
C         -2.92797       -1.51342        0.15471
C         -3.53562       -2.86634        0.28564
O         -2.85609       -3.86984        0.36529
N         -4.93213       -2.92122        0.31287
C         -5.57773       -4.22585        0.44558
C         -5.78472       -1.81825        0.23759
O         -6.98988       -1.96666        0.28322
C         -5.15176       -0.47988        0.09850
C         -5.94156        0.64396        0.01264
H         -7.01987        0.53245        0.04722
C         -5.34700        1.91201       -0.11576
C         -3.97622        2.04209       -0.15756
C         -3.38783        3.39962       -0.29264
O         -4.07805        4.39845       -0.35075
N         -1.99693        3.46334       -0.35605
C         -1.36786        4.77133       -0.53165
C         -1.12550        2.36995       -0.31689
O          0.06532        2.55250       -0.46295
C         -1.72728        1.01978       -0.10064
C         -3.14115        0.90284       -0.07011
C         -3.74446       -0.36680        0.06136
H          2.81708       -1.34698       -3.14033
H          4.29046       -2.28262       -2.85013
H          4.40295       -0.61877       -3.43085
H          5.25911        0.73414        3.17162
H          3.68314       -0.01199        3.47169
H          3.77343        1.65087        2.88299
H         -0.94766       -2.27362        0.23458
H         -4.79835       -4.98378        0.45787
H         -6.25601       -4.38693       -0.39420
H         -6.15550       -4.25979        1.37156
H         -5.95474        2.80781       -0.18155
H         -2.14859        5.52561       -0.47183
H         -0.86896        4.81791       -1.50198
H         -0.62215        4.92493        0.25000
