48
COMP92_110002.log	Energy: -1679481.6270797
C          0.44767       -0.02277        0.04800
C         -1.01054        0.06633        0.21528
C         -1.70237        0.71101        1.19374
F         -1.14303        1.44395        2.14680
C         -3.10879        0.55206        1.10113
F         -3.93686        1.13859        1.95423
C         -3.50104       -0.23272        0.05560
S         -2.10824       -0.79007       -0.82430
C         -4.85696       -0.58383       -0.32164
S         -5.40529       -0.58496       -1.97458
C         -6.99576       -1.07766       -1.52273
H         -7.76682       -1.23679       -2.26158
C         -7.09748       -1.21296       -0.17695
F         -8.19616       -1.57786        0.47572
C         -5.88038       -0.93662        0.50921
F         -5.77765       -1.04492        1.82763
C          1.00788       -1.32406       -0.01740
C          2.36091       -1.52144       -0.09639
C          2.88380       -2.91460       -0.15959
O          2.17610       -3.89555       -0.15382
N          4.27794       -3.01530       -0.21223
O          4.78241       -4.27360       -0.39613
C          5.02184       -4.91525        0.85850
C          5.22008       -1.97821       -0.18202
O          6.40794       -2.20485       -0.19095
C          4.64423       -0.60630       -0.12601
C          5.49523        0.47454       -0.10826
H          6.56583        0.30335       -0.13489
C          4.96950        1.77676       -0.05715
C          3.60854        1.98205       -0.02543
C          3.11062        3.38051        0.02545
O          3.83260        4.35184        0.04805
N          1.72152        3.49598        0.01613
O          1.22210        4.76592        0.11052
C          1.09623        5.36848       -1.17986
C          0.76121        2.47766       -0.09533
O         -0.39756        2.76232       -0.28375
C          1.29500        1.08192       -0.00032
C          2.70481        0.88900       -0.03963
C          3.24260       -0.41737       -0.08862
H          0.35772       -2.19275        0.01641
H          5.44451       -5.88493        0.59456
H          4.08314       -5.05332        1.40280
H          5.74336       -4.34445        1.45032
H          5.62354        2.64192       -0.04054
H          0.66808        6.35142       -0.98206
H          0.41661        4.78739       -1.80924
H          2.07806        5.47815       -1.64953
