30
COMP51_000010.log	Energy: -1453599.3916140
C         -1.19643        0.53583        0.07806
C          0.25260        0.44464        0.04269
C          1.02292       -0.66702        0.17134
H          0.61434       -1.65836        0.33567
C          2.43348       -0.40050        0.09235
C          3.49347       -1.30386        0.18738
H          3.30480       -2.36236        0.33720
C          4.78358       -0.80462        0.08494
S          6.27125       -1.72403        0.16733
C          7.21359       -0.27442       -0.05531
H          8.29299       -0.34554       -0.07724
C          6.46433        0.84200       -0.18467
H          6.88116        1.83177       -0.33023
C          5.04833        0.57673       -0.10877
C          3.98701        1.48026       -0.20091
H          4.17474        2.53920       -0.34904
C          2.69839        0.98059       -0.09979
S          1.21212        1.90032       -0.19471
C         -1.97981        1.63870        0.30555
H         -1.59712        2.63316        0.50444
N         -3.32840        1.43629        0.28922
C         -3.59976        0.18393        0.05194
S         -2.21798       -0.84432       -0.18202
C         -4.94852       -0.35381       -0.02476
S         -6.33922        0.66612        0.19559
C         -7.33493       -0.71652       -0.05152
H         -8.41300       -0.64907       -0.01851
C         -6.56400       -1.81794       -0.27614
H         -6.94297       -2.81560       -0.45965
N         -5.21146       -1.60865       -0.26007
