36
COMP25_000200.log	Energy: -1388764.8055840
C          1.62533       -0.12856       -0.15449
C          0.15763       -0.29509       -0.31710
C         -0.69934        0.37827        0.54850
C         -2.07141        0.21799        0.37008
N         -3.12332        0.76031        1.08868
C         -3.04140        1.64077        2.22699
C         -4.31023        0.30961        0.54001
C         -5.61860        0.59008        0.93515
C         -6.64662        0.00392        0.20924
H         -7.67591        0.20323        0.49236
C         -6.38499       -0.83933       -0.88097
C         -5.08051       -1.11325       -1.26712
C         -4.02938       -0.53611       -0.55410
C         -2.58838       -0.59516       -0.66343
C         -1.71364       -1.24960       -1.52990
C         -0.34841       -1.10002       -1.35321
C          2.20814        1.17414       -0.31001
N          1.53812        2.29433       -0.58672
S          2.64381        3.48287       -0.66712
N          4.00345        2.64364       -0.36041
C          3.62383        1.37817       -0.18112
C          4.48133        0.28448        0.10882
H          5.54910        0.43457        0.20670
C          3.91601       -0.94436        0.26189
Cl         4.95788       -2.28645        0.62603
C          2.49070       -1.15550        0.13590
Cl         1.87084       -2.75621        0.39948
H         -0.29237        1.00810        1.33228
H         -1.99629        1.86865        2.43790
H         -3.48087        1.17291        3.11526
H         -3.56487        2.58211        2.02658
H         -5.82974        1.24089        1.77812
H         -7.21370       -1.28181       -1.42462
H         -4.87924       -1.76774       -2.11045
H         -2.09717       -1.86977       -2.33455
H          0.34362       -1.60249       -2.02090
