36
COMP57_140400.log	Energy: -1767568.2820875
C         -1.95931        0.15517        0.44590
C         -0.53446        0.41638        0.30090
C          0.06125        1.65178        0.24348
O         -0.54765        2.84921        0.30271
C          1.47528        1.56612        0.11668
F          2.22516        2.66986        0.05744
C          1.97580        0.29327        0.07822
S          0.66737       -0.84908        0.18527
C          3.34423       -0.18111       -0.02023
C          4.42595        0.61263       -0.13935
C          5.79321        0.13806       -0.23181
C          6.30810       -1.12763       -0.21292
F          5.58132       -2.25612       -0.09618
C          7.72354       -1.22060       -0.32691
O          8.39920       -2.39221       -0.32582
C          8.29687        0.01090       -0.43511
H          9.34793        0.23622       -0.53606
S          7.10957        1.26451       -0.39660
C         -2.62080       -0.15752        1.61373
O         -2.06512       -0.27886        2.82705
N         -3.96108       -0.35563        1.52316
C         -4.35317       -0.20468        0.28703
S         -3.11846        0.18196       -0.86192
C         -5.74254       -0.33947       -0.12340
S         -6.98071       -0.73442        1.02192
C         -8.12561       -0.66693       -0.26536
H         -9.17707       -0.85290       -0.09881
C         -7.48806       -0.35760       -1.43801
O         -8.03164       -0.21268       -2.66239
N         -6.14282       -0.17336       -1.35313
H         -1.50090        2.70284        0.39124
H          3.47373       -1.25847        0.00878
H          4.29605        1.68965       -0.17314
H          7.75971       -3.11094       -0.23642
H         -1.11278       -0.12519        2.74164
H         -8.98206       -0.36584       -2.60673
