54
COMP92_230003.log	Energy: -2265257.0702609
C          0.51988        0.03547        0.26653
C         -0.92949       -0.08128        0.54556
C         -1.55928        0.10165        1.73939
Cl        -0.75222        0.60365        3.17684
C         -2.96605       -0.14736        1.68335
C         -3.82828       -0.04258        2.81523
N         -4.52810        0.04637        3.73484
C         -3.37866       -0.53407        0.42421
S         -2.04611       -0.57600       -0.67173
C         -4.72816       -0.86306       -0.01952
S         -6.07737        0.12514        0.41021
C         -7.17413       -0.86797       -0.45941
H         -8.23133       -0.64527       -0.47981
C         -6.53772       -1.90811       -1.06186
Cl        -7.33316       -3.10809       -2.01086
C         -5.12707       -1.91782       -0.81859
C         -4.24648       -2.92229       -1.32033
N         -3.52948       -3.73469       -1.73186
C          1.29690       -1.13587        0.42007
C          2.65220       -1.11896        0.20728
C          3.43174       -2.37284        0.38654
O          2.93640       -3.43002        0.70736
N          4.80609       -2.26402        0.16280
C          5.59229       -3.46851        0.38269
O          6.10947       -3.72558        1.42862
O          5.61830       -4.17797       -0.72915
C          6.35027       -5.40731       -0.64233
C          5.50997       -1.12387       -0.23516
O          6.70391       -1.17234       -0.43295
C          4.69940        0.11270       -0.39198
C          5.32086        1.28425       -0.75544
H          6.39316        1.28293       -0.91851
C          4.56633        2.46157       -0.90869
C          3.20556        2.44895       -0.70333
C          2.44504        3.70996       -0.87586
O          2.94897        4.77012       -1.17535
N          1.06840        3.60656       -0.67368
C          0.29138        4.81662       -0.90046
O         -0.18405        5.09538       -1.96055
O          0.22308        5.50332        0.22360
C         -0.51532        6.72867        0.13763
C          0.34144        2.47535       -0.29817
O         -0.85848        2.55839       -0.15032
C          1.13180        1.22194       -0.11331
C          2.53603        1.25558       -0.33026
C          3.30075        0.07764       -0.17155
H          0.81919       -2.06415        0.71627
H          6.24669       -5.87354       -1.62034
H          5.92392       -6.04172        0.13727
H          7.39911       -5.20204       -0.41862
H          5.04202        3.39467       -1.19055
H         -0.43642        7.18225        1.12384
H         -1.55775        6.51873       -0.11054
H         -0.07787        7.37675       -0.62437
