38
COMP77_400001.log	Energy: -1670003.3977613
C         -1.44821        0.87164        0.37011
C         -0.20979        0.11931        0.50301
C          0.01216       -1.11136        1.06408
H         -0.78463       -1.73284        1.44733
C          1.38278       -1.47404        1.06140
O          1.87924       -2.63822        1.55085
C          2.21746       -0.52696        0.51008
S          1.28837        0.83235       -0.04121
C          3.65245       -0.63992        0.37567
C          4.48281        0.32045       -0.08196
C          5.91017        0.14931       -0.28235
C          6.59067       -0.98589       -0.66748
O          6.04160       -2.19080       -0.95257
C          7.99779       -0.79457       -0.79664
H          8.67606       -1.58505       -1.09214
C          8.36839        0.48450       -0.51763
H          9.36604        0.90086       -0.53343
S          7.02547        1.47870       -0.10173
C         -2.76995        0.48360        0.20366
C         -3.30086       -0.89802        0.11378
O         -2.64082       -1.90963        0.29234
C         -4.74908       -0.98899       -0.20316
C         -5.41383       -2.16940       -0.37648
H         -4.99351       -3.16417       -0.32420
S         -7.08027       -1.90836       -0.70337
C         -6.90533       -0.20226       -0.60153
H         -7.74311        0.46677       -0.74229
C         -5.61307        0.14609       -0.33312
C         -5.11391        1.52719       -0.18351
O         -5.82722        2.51031       -0.27193
C         -3.65299        1.61743        0.06716
C         -3.01211        2.81528        0.14797
H         -3.46658        3.79322        0.06883
S         -1.33292        2.61328        0.39506
H          1.14871       -3.19826        1.83725
H          4.05753       -1.58561        0.73130
H          4.07162        1.29800       -0.33598
H          5.08199       -2.08219       -1.02452
