30
COMP61_000011.log	Energy: -1048275.1916468
C         -2.25783       -0.50442        0.00013
C         -0.81748       -0.51787       -0.00012
C         -0.02705        0.59265        0.00004
H         -0.43929        1.59883        0.00035
C          1.37203        0.28175        0.00010
C          2.45011        1.17092        0.00063
H          2.27719        2.24233        0.00113
C          3.72841        0.63738        0.00040
S          5.23467        1.53099        0.00098
C          6.14590        0.04633        0.00007
H          7.22697        0.09111        0.00012
C          5.37619       -1.06396       -0.00038
H          5.77513       -2.07171       -0.00087
C          3.96565       -0.76496       -0.00026
C          2.88849       -1.65389       -0.00074
H          3.05715       -2.72610       -0.00134
C          1.60961       -1.12022       -0.00053
S          0.10648       -2.01688       -0.00111
C         -3.11342        0.56730       -0.00020
C         -3.14219        2.02159       -0.00052
O         -2.26940        2.87500       -0.00117
N         -4.52882        2.29847       -0.00057
H         -4.88335        3.24206       -0.00087
C         -5.29791        1.14834        0.00013
H         -6.37751        1.20486        0.00054
C         -4.46242        0.07962        0.00019
C         -4.42492       -1.38673        0.00078
O         -5.28561       -2.23827        0.00156
N         -3.03292       -1.65595        0.00057
H         -2.68134       -2.60173        0.00156
