28
COMP52_220200.log	Energy: -3136104.4283477
C          1.29816        0.63293        0.16075
C         -0.12765        0.41571        0.38038
C         -0.74968       -0.04961        1.50815
Cl         0.08451       -0.46564        2.95564
C         -2.16892       -0.12922        1.37266
Cl        -3.21021       -0.63970        2.64295
C         -2.61086        0.26924        0.13969
S         -1.28368        0.73799       -0.86741
C         -3.98591        0.32371       -0.34867
S         -4.78986        1.83847       -0.61329
C         -6.22966        1.05811       -1.12899
H         -7.09763        1.62684       -1.43037
C         -6.10618       -0.29677       -1.09457
Cl        -7.36558       -1.38519       -1.54738
C         -4.81523       -0.72302       -0.64933
Cl        -4.35286       -2.37603       -0.53040
C          1.97228        1.81746        0.00584
Cl         1.22463        3.37038        0.07728
N          3.31009        1.74398       -0.20058
C          3.68933        0.49505       -0.20854
S          2.43612       -0.67180        0.03119
C          5.07333        0.09039       -0.40077
S          6.33149        1.26162       -0.63050
C          7.45559       -0.03284       -0.75342
H          8.51026        0.13063       -0.91751
C          6.79950       -1.22031       -0.61274
Cl         7.56968       -2.76485       -0.67405
N          5.45636       -1.15617       -0.41413
