44
COMP51_100430.log	Energy: -1958367.3080767
C         -1.93479       -0.67202       -0.25937
C         -0.50630       -0.45993       -0.14934
C          0.16876        0.71278       -0.24016
F         -0.45441        1.86570       -0.49056
C          1.60066        0.61145       -0.13867
C          2.58676        1.60668       -0.18832
C          2.30687        3.07133       -0.12126
O          2.95683        3.90430       -0.71271
O          1.32337        3.35330        0.72982
C          0.97434        4.73512        0.83504
C          3.91997        1.19836       -0.25860
S          5.29818        2.25264       -0.48102
C          6.37642        0.89273       -0.41984
H          7.43938        1.02270       -0.56574
C          5.73571       -0.27999       -0.24863
F          6.36494       -1.45490       -0.26795
C          4.30259       -0.16123       -0.12244
C          3.31666       -1.14285        0.06942
C          3.59198       -2.57050        0.40730
O          2.89584       -3.48823        0.03089
O          4.62286       -2.70591        1.23578
C          4.95329       -4.04948        1.59454
C          1.98408       -0.74808       -0.01917
S          0.59793       -1.81378        0.07375
C         -2.60484       -1.75954       -0.79055
O         -2.07721       -2.85912       -1.35159
N         -3.95957       -1.71089       -0.74014
C         -4.35454       -0.59829       -0.18486
S         -3.10351        0.48342        0.31571
C         -5.75522       -0.25677       -0.00052
S         -7.01563       -1.32813       -0.51473
C         -8.16336       -0.17959        0.06521
H         -9.22717       -0.35421       -0.01011
C         -7.51009        0.90379        0.59079
O         -8.05071        2.00963        1.14041
N         -6.15115        0.85615        0.55263
H          0.17174        4.77523        1.56959
H          0.63092        5.11384       -0.13036
H          1.83479        5.31997        1.16745
H          5.79889       -3.96772        2.27554
H          5.22869       -4.62118        0.70540
H          4.10480       -4.53106        2.08541
H         -1.12310       -2.75094       -1.47527
H         -9.01187        1.93734        1.11366
