35
COMP27_340000.log	Energy: -1414563.8726764
C         -3.23418        0.83308       -0.23932
C         -1.91538        0.19874       -0.15627
C         -1.51948       -1.12562       -0.24225
O         -2.26013       -2.22517       -0.38031
C         -0.09429       -1.28510       -0.20792
C          0.50526       -2.57414       -0.28801
N          1.01674       -3.61361       -0.35102
C          0.59810       -0.09531       -0.08376
S         -0.50981        1.22246        0.00636
C          2.01511        0.20356        0.00001
C          3.01412       -0.69687       -0.08949
C          4.42983       -0.39199       -0.01195
C          5.11067        0.80436        0.16302
C          4.53309        2.09342        0.31854
N          4.14208        3.17950        0.45041
C          6.53801        0.64828        0.17581
O          7.41732        1.65783        0.33082
C          6.91973       -0.65149        0.01184
H          7.92844       -1.03562       -0.01536
S          5.55863       -1.68806       -0.15678
C         -4.46254        0.15105        0.07735
N         -4.58942       -1.12743        0.43508
S         -6.17506       -1.41366        0.68913
N         -6.76447        0.05926        0.36453
C         -5.73089        0.83750        0.03680
C         -5.80664        2.21012       -0.32550
H         -6.76617        2.71240       -0.34765
C         -4.63507        2.83182       -0.63749
H         -4.63893        3.87741       -0.92844
C         -3.37995        2.15526       -0.59951
H         -2.50061        2.72748       -0.87928
H         -3.18153       -2.04310       -0.09072
H          2.24911        1.25484        0.14196
H          2.78003       -1.74703       -0.23508
H          6.94447        2.49634        0.42685
