44
COMP91_300011.log	Energy: -1450429.5585806
C          1.02245       -0.22435       -0.20589
C         -0.45847       -0.17732       -0.17967
C         -1.23091       -0.04334        0.93383
C         -0.68742        0.15957        2.23584
N         -0.25909        0.32483        3.30084
C         -2.64975       -0.09106        0.65600
C         -3.70858        0.02648        1.55271
H         -3.52315        0.17800        2.61143
C         -4.99282       -0.05362        1.03432
S         -6.49132        0.06432        1.93388
C         -7.42034       -0.14132        0.49096
H         -8.50115       -0.13989        0.53741
C         -6.65807       -0.29291       -0.62462
C         -7.18840       -0.47660       -1.93639
N         -7.58249       -0.62741       -3.01644
C         -5.23615       -0.24751       -0.34680
C         -4.17581       -0.36686       -1.24365
H         -4.36143       -0.51496       -2.30285
C         -2.89295       -0.28583       -0.72509
S         -1.39532       -0.40350       -1.62476
C          1.62385       -1.50186       -0.13426
C          2.98780       -1.63940       -0.08618
C          3.58252       -3.00234       -0.00222
O          2.92624       -4.02118        0.00696
N          4.96902       -3.03612        0.06419
H          5.38640       -3.95799        0.12480
C          5.85900       -1.96783        0.06045
O          7.05543       -2.15062        0.12548
C          5.23382       -0.61980       -0.02978
C          6.03314        0.49905       -0.03644
H          7.10912        0.37577        0.02428
C          5.45256        1.77804       -0.11687
C          4.08614        1.92045       -0.18981
C          3.50690        3.28609       -0.27131
O          4.16714        4.30262       -0.27949
N          2.12199        3.32809       -0.34497
H          1.70994        4.25169       -0.41561
C          1.21882        2.27436       -0.36186
O          0.03152        2.49117       -0.47575
C          1.81936        0.91022       -0.24552
C          3.23442        0.78454       -0.18379
C          3.82322       -0.49796       -0.10111
H          1.00331       -2.39191       -0.10537
H          6.06853        2.67103       -0.11991
