53
COMP79_000032.log	Energy: -1980548.8981467
C         -0.81145       -1.86423        0.10388
C          0.54975       -1.37521       -0.07978
C          1.13769       -0.20331        0.33621
C          2.51096       -0.16851        0.01629
C          2.96213       -1.29061       -0.63607
S          1.71154       -2.42719       -0.89253
C          4.37205       -1.14220       -0.91819
C          4.80694        0.06285       -0.42107
C          3.65681        0.80354        0.24005
C          3.42765        2.16895       -0.41233
O          2.45430        2.49975       -1.03310
O          4.49770        2.95067       -0.20296
C          4.39595        4.27080       -0.73757
C          3.80450        1.02013        1.75069
O          3.18612        1.86045        2.35663
O          4.63486        0.14058        2.30882
C          4.73489        0.21845        3.73199
C          6.18720        0.29555       -0.64575
C          6.76394       -0.74915       -1.31077
H          7.79517       -0.85218       -1.61911
S          5.63811       -2.02317       -1.67006
C         -2.04102       -1.22767        0.13711
C         -2.29896        0.22906       -0.01497
O         -1.41360        1.06707       -0.06079
C         -3.72839        0.59642       -0.09145
C         -4.17616        1.87218       -0.29703
O         -3.42038        2.95156       -0.46917
C         -4.05033        4.19262       -0.72735
S         -5.93724        1.95977       -0.30700
C         -6.04609        0.22765       -0.01588
O         -7.21245       -0.40143        0.09137
C         -8.40567        0.35495       -0.00535
C         -4.81164       -0.35185        0.07211
C         -4.56822       -1.78064        0.30520
O         -5.44604       -2.61136        0.47137
C         -3.12917       -2.15544        0.30074
C         -2.72678       -3.45131        0.40719
H         -3.36592       -4.31490        0.52776
S         -1.02461       -3.58480        0.31871
H          0.59233        0.58725        0.82890
H          5.33196        4.76509       -0.47993
H          3.54814        4.79406       -0.28985
H          4.26527        4.23416       -1.82163
H          5.43590       -0.56467        4.01731
H          3.75878        0.04914        4.19252
H          5.10881        1.19932        4.03461
H          6.72072        1.18528       -0.33710
H         -3.24382        4.91631       -0.83840
H         -4.69443        4.49006        0.10959
H         -4.63634        4.15212       -1.65379
H         -9.21827       -0.35968        0.11935
H         -8.48914        0.83627       -0.98757
H         -8.45746        1.11195        0.78668
