34
COMP31_000000.log	Energy: -1184295.5802905
C          2.46728        0.04509        0.02943
C          1.00157       -0.07509        0.03549
C          0.11006        0.92096        0.27721
H          0.41797        1.92643        0.52813
C         -1.26458        0.51454        0.16230
C         -2.42049        1.28738        0.35015
C         -2.39258        2.74337        0.72745
C         -3.62959        0.62430        0.16767
S         -5.21241        1.35859        0.34118
C         -5.98685       -0.14952       -0.05525
H         -7.06731       -0.20112       -0.07990
C         -5.11748       -1.15152       -0.30490
H         -5.43712       -2.15284       -0.56628
C         -3.73523       -0.74697       -0.18579
C         -2.57950       -1.51812       -0.37093
C         -2.60425       -2.97493       -0.74583
C         -1.36928       -0.85401       -0.19143
S          0.20517       -1.59499       -0.35026
C          3.31082       -1.00475        0.40974
F          2.79599       -2.17335        0.79994
C          4.69310       -0.87629        0.39660
F          5.43822       -1.91582        0.77442
C          5.29633        0.30679        0.00859
H          6.37441        0.40807        0.00213
C          4.48006        1.35760       -0.37219
F          5.01795        2.51499       -0.76032
C          3.09756        1.23192       -0.36684
F          2.37842        2.28670       -0.76008
H         -1.37688        3.13536        0.80380
H         -2.88532        2.90379        1.69395
H         -2.92696        3.34764       -0.01526
H         -3.61944       -3.37013       -0.81219
H         -2.06072       -3.57637       -0.00721
H         -2.11989       -3.13570       -1.71660
