28
COMP52_110100.log	Energy: -1779277.1051651
C          1.06141       -0.25985        0.01733
C         -0.33690        0.09600       -0.05432
C         -0.87154        1.34178       -0.22686
F         -0.14442        2.45012       -0.36182
C         -2.28767        1.36532       -0.27340
F         -2.96249        2.48990       -0.46823
C         -2.85331        0.13276       -0.12552
S         -1.61899       -1.07775        0.08229
C         -4.26590       -0.19287       -0.12209
S         -4.91293       -1.59038       -0.93680
C         -6.52527       -1.22071       -0.44660
H         -7.35654       -1.85257       -0.72146
C         -6.55945       -0.07907        0.28508
F         -7.65480        0.46712        0.80279
C         -5.27508        0.50546        0.47552
F         -5.10546        1.60974        1.19108
C          1.61736       -1.50064        0.20258
F          0.88932       -2.60105        0.35020
N          2.95584       -1.60665        0.23589
C          3.48605       -0.42222        0.07415
S          2.36468        0.88353       -0.12794
C          4.91730       -0.18344        0.06019
S          6.05561       -1.47643        0.26411
C          7.32867       -0.32764        0.11631
H          8.37207       -0.59740        0.17239
C          6.78682        0.90809       -0.07033
F          7.49666        2.01450       -0.22004
N          5.43937        1.00316       -0.10385
