38
COMP51_100300.log	Energy: -1743148.6356083
C         -1.19887        0.74545       -0.01212
C          0.23447        0.54358       -0.01240
C          0.87579       -0.65765       -0.01993
F          0.19242       -1.80873       -0.02918
C          2.31036       -0.61956       -0.01399
C          3.24374       -1.66766       -0.01967
C          2.89305       -3.13151       -0.03407
C          4.57738       -1.27106       -0.00526
S          5.92909       -2.38905       -0.00429
C          7.06221       -1.07098        0.01537
H          8.12785       -1.24917        0.02153
C          6.44967        0.12798        0.02196
F          7.13040        1.27982        0.03654
C          5.00458        0.08248        0.01120
C          4.07018        1.12744        0.01506
C          4.42010        2.59174        0.02898
C          2.73536        0.73149        0.00151
S          1.39786        1.86188        0.00251
C         -1.92848        1.92428       -0.01442
C         -1.37586        3.24424       -0.02103
N         -0.93632        4.31678       -0.02640
N         -3.29076        1.79906       -0.01045
C         -3.62735        0.54491       -0.00497
S         -2.31409       -0.58818       -0.00508
C         -5.00959        0.09152        0.00144
S         -6.32954        1.22769       -0.00203
C         -7.41431       -0.09803        0.01113
H         -8.48680        0.03532        0.01431
C         -6.71729       -1.27657        0.01673
C         -7.33410       -2.57018        0.02876
N         -7.85820       -3.60288        0.03857
N         -5.35025       -1.16329        0.01114
H          1.82235       -3.30310       -0.11735
H          3.24589       -3.61721        0.88359
H          3.38397       -3.63129       -0.87754
H          5.49291        2.75698        0.09453
H          3.94458        3.09019        0.88218
H          4.05330        3.08184       -0.88090
