31
COMP22_440200.log	Energy: -1921427.1038295
C          1.82765        0.03538        0.13567
C          0.41256       -0.30866        0.30645
C         -0.11884       -1.46553        0.82809
O          0.51054       -2.53113        1.38739
C         -1.53847       -1.50987        0.78652
O         -2.22740       -2.56670        1.27421
C         -2.11077       -0.41136        0.20225
S         -0.87449        0.71527       -0.29133
C         -3.51821       -0.15731       -0.01396
S         -4.76035       -1.28924        0.47623
C         -6.01880       -0.25934       -0.11591
H         -7.05544       -0.55423       -0.02825
C         -5.51273        0.87992       -0.65643
O         -6.15264        1.94115       -1.22621
C         -4.08851        0.94185       -0.60071
O         -3.38479        1.99198       -1.08595
C          2.75316       -0.97132       -0.32189
N          2.45795       -2.25466       -0.54160
S          3.82442       -2.98430       -1.05149
N          4.83781       -1.71989       -1.01650
C          4.13101       -0.67127       -0.59382
C          4.63433        0.63942       -0.40182
H          5.67000        0.86907       -0.61633
C          3.76980        1.57766        0.07160
Cl         4.38504        3.17961        0.33703
C          2.38137        1.28493        0.35381
Cl         1.42238        2.56572        1.01631
H          1.25635       -2.76659        0.80220
H         -1.56732       -3.20528        1.58634
H         -7.10508        1.79555       -1.21399
H         -4.01510        2.63557       -1.43904
