40
COMP51_300120.log	Energy: -1837506.8164150
C          1.70903       -0.55698       -0.07383
C          0.27610       -0.34404       -0.05880
C         -0.41939        0.84025        0.04909
C          0.21126        2.11252        0.16082
N          0.74259        3.14227        0.22926
C         -1.85642        0.66607        0.03237
C         -2.86951        1.62767        0.11463
O         -2.59809        2.95330        0.25669
C         -2.46083        3.66730       -0.97250
C         -4.18429        1.17473        0.09266
S         -5.59951        2.19411        0.20524
C         -6.63322        0.81566        0.08381
H         -7.70759        0.94145        0.10458
C         -5.96613       -0.36594       -0.02598
C         -6.64616       -1.61825       -0.12242
N         -7.22151       -2.62340       -0.17600
C         -4.52632       -0.19242       -0.01844
C         -3.51257       -1.15194       -0.10451
O         -3.78337       -2.47722       -0.25130
C         -3.93626       -3.19337        0.97489
C         -2.19973       -0.69797       -0.08095
S         -0.79707       -1.72426       -0.19339
C          2.36961       -1.75810       -0.21204
F          1.74524       -2.91678       -0.35808
N          3.70959       -1.76361       -0.19859
C          4.14023       -0.53653       -0.04394
S          2.92526        0.68412        0.09044
C          5.55084       -0.19853        0.01325
S          6.77619       -1.41656       -0.12941
C          7.96435       -0.18595        0.04088
H          9.02444       -0.38794        0.02570
C          7.33822        1.01627        0.18718
F          7.97007        2.16724        0.34066
N          5.98758        1.02242        0.17344
H         -2.17909        4.68403       -0.70018
H         -3.40781        3.67520       -1.52497
H         -1.67469        3.22957       -1.59651
H         -4.19494       -4.21453        0.69648
H         -4.74348       -2.76869        1.58058
H         -3.00141       -3.18668        1.54775
