40
COMP72_010002.log	Energy: -1795255.7136321
C          0.19990       -1.21394       -0.39439
C          1.44131       -0.44902       -0.40357
C          1.71403        0.76706       -0.96939
H          0.98124        1.39063       -1.45723
C          3.07124        1.11560       -0.81274
F          3.56315        2.26497       -1.29270
C          3.85425        0.21036       -0.14538
S          2.86926       -1.14157        0.32676
C          5.26402        0.30662        0.16732
S          6.24913        1.66745       -0.29645
C          7.65361        0.97720        0.42353
H          8.59403        1.50872        0.38283
C          7.40607       -0.23275        0.99667
H          8.13556       -0.84816        1.50663
C          6.04538       -0.59522        0.84056
F          5.56011       -1.74663        1.32240
C         -1.12887       -0.83375       -0.31296
C         -1.65913        0.55208       -0.19789
O         -0.95734        1.54805       -0.27500
C         -3.11869        0.63788        0.00584
C         -3.79320        1.81389        0.18972
O         -3.25625        3.02865        0.22942
C         -4.09708        4.13935        0.48583
S         -5.52707        1.55703        0.37570
C         -5.31177       -0.18040        0.19068
O         -6.33352       -1.02887        0.23269
C         -7.63686       -0.51606        0.44394
C         -3.99919       -0.51302        0.00663
C         -3.49471       -1.88088       -0.16837
O         -4.19767       -2.87737       -0.18873
C         -2.01611       -1.96594       -0.30233
C         -1.36980       -3.16144       -0.38854
H         -1.82859       -4.14039       -0.39414
S          0.32332       -2.95140       -0.49119
H         -3.44333        5.01069        0.48485
H         -4.58350        4.04640        1.46443
H         -4.85471        4.24988       -0.29979
H         -8.30016       -1.38009        0.43500
H         -7.92382        0.17356       -0.35931
H         -7.70835       -0.00992        1.41435
