32
COMP41_100010.log	Energy: -1412581.5702952
C         -1.95596       -0.83514       -0.00529
C         -0.54586       -0.49706       -0.00540
C          0.49809       -1.37005       -0.00078
F          0.34499       -2.69875        0.00374
C          1.80392       -0.79043       -0.00065
C          3.04159       -1.43432        0.00477
H          3.10411       -2.51727        0.00936
C          4.16963       -0.63015        0.00424
S          5.84146       -1.15781        0.01071
C          6.40215        0.49513        0.00518
H          7.45882        0.72042        0.00710
C          5.38306        1.37570       -0.00083
F          5.53052        2.70209       -0.00574
C          4.07160        0.78418       -0.00161
C          2.83387        1.42376       -0.00682
H          2.77059        2.50676       -0.01144
C          1.70279        0.62055       -0.00634
S          0.04075        1.16794       -0.01119
C         -3.07199       -0.03739       -0.00400
C         -3.39699        1.41145        0.00170
O         -2.66784        2.37785       -0.00052
N         -4.79748        1.47186        0.00902
C         -5.54326        2.71157        0.01322
C         -5.41782        0.21672        0.00440
O         -6.61217        0.03548        0.00666
C         -4.29577       -0.75430       -0.00331
C         -4.14960       -2.10050       -0.00403
H         -4.91031       -2.86883       -0.00399
S         -2.47491       -2.51587       -0.00606
H         -4.82265        3.52923       -0.01882
H         -6.14979        2.78547        0.91943
H         -6.20139        2.75774       -0.85791
