34
COMP67_320001.log	Energy: -1741498.5196278
C          3.61584        0.06153        0.04512
C          2.27843        0.60814       -0.04053
C          1.83974        1.90664       -0.18106
Cl         2.83894        3.31130       -0.31143
C          0.42237        2.02994       -0.21963
C         -0.26693        3.26798       -0.37981
N         -0.84462        4.26336       -0.51705
C         -0.22005        0.80968       -0.11122
S          0.91431       -0.47594        0.05147
C         -1.65482        0.60377       -0.12592
C         -2.23863       -0.60218       -0.25299
C         -3.66712       -0.86287       -0.24080
C         -4.72862       -0.09566        0.20734
C         -4.59476        1.18664        0.81378
N         -4.47577        2.22886        1.30798
C         -5.98942       -0.75270        0.03177
Cl        -7.48819       -0.04120        0.50281
C         -5.87887       -1.98672       -0.52880
H         -6.67664       -2.67706       -0.76143
S         -4.23896       -2.37604       -0.85668
C          4.00971       -1.25047        0.14244
C          3.50589       -2.61954        0.19378
O          2.38477       -3.09407        0.18116
N          4.69559       -3.38212        0.27399
H          4.67852       -4.38806        0.33706
C          5.82703       -2.59236        0.27748
H          6.81251       -3.03321        0.33706
C          5.44270       -1.29354        0.19860
C          5.95312        0.07657        0.13478
O          7.06671        0.54912        0.14838
N          4.76096        0.84081        0.04108
H          4.78242        1.84698       -0.01332
H         -2.25050        1.50822       -0.03754
H         -1.61348       -1.48275       -0.39588
