66
COMP81_200023.log	Energy: -2295960.9743548
C          0.37690        0.01445       -0.06306
C          1.84716       -0.08510       -0.09236
C          2.75207        0.75116       -0.66796
Cl         2.27999        2.12760       -1.61393
C          4.13158        0.34796       -0.49209
C          5.33094        0.93915       -0.91119
O          5.38817        2.10211       -1.62047
C          5.40423        3.27596       -0.81200
C          6.51858        0.28618       -0.60008
S          8.09942        0.87243       -1.05926
C          8.85015       -0.47309       -0.25834
H          9.92694       -0.57080       -0.24671
C          7.96477       -1.32151        0.30906
Cl         8.48019       -2.72692        1.18680
C          6.58273       -0.92700        0.12778
C          5.38405       -1.51733        0.54705
O          5.33411       -2.67381        1.26814
C          5.29631       -3.85541        0.47257
C          4.19701       -0.86601        0.23341
S          2.62011       -1.43859        0.70775
C         -0.41202       -1.07966       -0.43052
C         -1.79730       -1.01208       -0.38183
C         -2.42109        0.16008        0.05147
C         -3.82242        0.58667        0.12312
C         -3.78282        2.03240        0.55744
O         -4.70893        2.75539        0.82485
N         -2.41843        2.37289        0.71367
C         -1.90678        3.60289        1.15098
O         -0.74418        3.77254        1.43515
O         -2.84156        4.54171        1.19623
C         -2.38671        5.81546        1.65738
C         -1.60821        1.25839        0.39308
C         -0.22630        1.20484        0.35637
C         -4.99769       -0.08165       -0.06858
C         -5.08129       -1.59020       -0.02225
O         -4.19767       -2.37739        0.20658
N         -6.44423       -1.92643       -0.18420
C         -6.99665       -3.21437       -0.15189
O         -8.18527       -3.42391       -0.08449
O         -6.06458       -4.15484       -0.22292
C         -6.55766       -5.49392       -0.15407
C         -7.21288       -0.74769       -0.34456
C         -8.57232       -0.64930       -0.59764
C         -9.10168        0.62215       -0.80531
H        -10.16534        0.72372       -0.99789
C         -8.28988        1.75246       -0.77814
C         -6.93011        1.64065       -0.51561
C         -6.37375        0.38135       -0.27195
H          5.47967        4.11655       -1.50255
H          6.26764        3.27249       -0.13595
H          4.48085        3.36400       -0.22954
H          5.23225       -4.68867        1.17305
H          6.20702       -3.95255       -0.12835
H          4.41900       -3.85637       -0.18554
H          0.06333       -1.99367       -0.77218
H         -2.38429       -1.87099       -0.66532
H         -3.27510        6.44496        1.67136
H         -1.63548        6.22130        0.97603
H         -1.95764        5.72931        2.65795
H          0.36648        2.05562        0.65635
H         -5.67192       -6.12455       -0.21312
H         -7.23445       -5.69769       -0.98678
H         -7.08448       -5.65860        0.78841
H         -9.19394       -1.53177       -0.62805
H         -8.71868        2.73339       -0.95495
H         -6.31291        2.52441       -0.48342
