46
COMP67_230003.log	Energy: -2027392.6919363
C         -2.53412       -0.58937       -0.23557
C         -1.15358       -0.93548        0.05545
C         -0.65406       -2.00648        0.77285
C         -1.45489       -3.02814        1.36319
N         -2.11457       -3.85417        1.83853
C          0.76311       -1.95895        0.89093
Cl         1.65496       -3.16182        1.74635
C          1.33699       -0.86916        0.27880
S          0.11431        0.10918       -0.45905
C          2.74867       -0.54427        0.22969
C          3.24378        0.63155       -0.19598
C          4.64528        1.00720       -0.28501
C          5.81533        0.28828       -0.22392
Cl         5.93361       -1.42084       -0.02205
C          6.99148        1.09286       -0.37493
C          8.32549        0.58331       -0.34985
N          9.41306        0.18420       -0.33165
C          6.69577        2.41761       -0.55246
H          7.39861        3.22745       -0.68769
S          5.01173        2.69364       -0.53660
C         -3.10695        0.64459       -0.19587
C         -2.79914        2.04311        0.11935
O         -1.75673        2.60777        0.33171
N         -4.11436        2.65996        0.09007
C         -4.46856        4.00306        0.30721
O         -5.61393        4.37871        0.23872
O         -3.41428        4.74939        0.58632
C         -3.70212        6.13098        0.82478
C         -5.10351        1.71632       -0.20078
H         -6.13813        2.02647       -0.22310
C         -4.52018        0.51628       -0.38848
C         -4.84543       -0.89258       -0.60536
O         -5.87813       -1.44608       -0.86823
N         -3.54528       -1.53751       -0.48269
C         -3.27595       -2.84950       -0.95381
O         -2.26151       -3.13686       -1.53837
O         -4.26592       -3.65925       -0.64302
C         -4.07733       -5.02404       -1.03260
H          3.40800       -1.32895        0.58176
H          2.54873        1.41445       -0.49747
H         -2.73716        6.58991        1.03198
H         -4.37343        6.23690        1.67950
H         -4.16315        6.58071       -0.05705
H         -4.99996       -5.52846       -0.75230
H         -3.22644       -5.44342       -0.49204
H         -3.90764       -5.09476       -2.10887
