36
COMP62_030000.log	Energy: -1165492.5497017
C          1.81677        0.60991       -0.07583
C          0.45866        0.10612       -0.03137
C          0.13511       -1.21406        0.17845
H          0.87940       -1.99178        0.32747
C         -1.26453       -1.44052        0.17757
C         -1.82983       -2.73328        0.40795
N         -2.27624       -3.78712        0.59231
C         -2.01164       -0.29165       -0.03487
S         -0.97316        1.06800       -0.24570
C         -3.45790       -0.14139       -0.11188
S         -4.45716       -1.36743       -0.81263
C         -5.88591       -0.45234       -0.54691
H         -6.84590       -0.85611       -0.83725
C         -5.62849        0.74395        0.04732
H         -6.38226        1.47358        0.31341
C         -4.23595        0.93011        0.29747
C         -3.72688        2.10490        0.93160
N         -3.33659        3.07097        1.44085
C          2.96555       -0.14306        0.00194
C          3.45764       -1.50465        0.12726
O          2.90254       -2.58601        0.25334
N          4.86897       -1.34815        0.08208
C          5.77941       -2.46917        0.16456
C          5.22044       -0.02384       -0.05659
H          6.26224        0.26365       -0.11123
C          4.09173        0.73112       -0.10270
C          3.60639        2.09407       -0.24020
O          4.16410        3.16457       -0.35063
N          2.18185        1.94251       -0.21615
C          1.33479        3.11486       -0.28690
H          5.17642       -3.36082        0.34317
H          6.48331       -2.33823        0.99152
H          6.33352       -2.59348       -0.77086
H          2.00974        3.97203       -0.32415
H          0.69685        3.20442        0.59713
H          0.72062        3.11510       -1.19268
