53
COMP96_000010.log	Energy: -957552.3208783
C         -0.21521       -0.21655       -0.26544
C          1.26874       -0.31339       -0.34859
C          2.07450        0.16850        0.68900
C          3.44069       -0.02775        0.63001
C          4.50847        0.39178        1.61363
H          4.53202        1.48032        1.74737
H          4.34725       -0.04978        2.60500
C          5.77394       -0.12419        0.96699
C          7.08543       -0.04007        1.41027
C          8.09808       -0.59955        0.63122
H          9.12936       -0.54051        0.96649
C          7.79925       -1.23384       -0.57544
C          6.48401       -1.31970       -1.02435
C          5.47415       -0.76172       -0.24672
C          4.02163       -0.70113       -0.45738
C          3.22776       -1.18435       -1.48974
C          1.85040       -0.99539       -1.42157
C         -0.90785       -1.45396       -0.20320
C         -2.26961       -1.52034       -0.06207
C         -2.93573       -2.84961        0.00884
O         -2.31075       -3.88808       -0.07588
N         -4.32338       -2.84165        0.17787
C         -5.02563       -4.12092        0.25548
C         -5.11623       -1.69734        0.28381
O         -6.31834       -1.79415        0.43491
C         -4.42584       -0.38324        0.20249
C         -5.15829        0.77867        0.29549
H         -6.23266        0.71500        0.42873
C         -4.50816        2.02150        0.21742
C         -3.14181        2.08994        0.04768
C         -2.50191        3.42684       -0.03322
O         -3.14109        4.45643        0.07030
N         -1.12561        3.43389       -0.24470
C         -0.45088        4.72296       -0.38493
C         -0.31067        2.30300       -0.38898
O          0.86259        2.45730       -0.65844
C         -0.95066        0.96420       -0.21062
C         -2.36301        0.91199       -0.04666
C         -3.02511       -0.33252        0.03297
H          1.62199        0.69174        1.52672
H          7.32372        0.45249        2.34928
H          8.60028       -1.66398       -1.16923
H          6.25530       -1.81369       -1.96463
H          3.66528       -1.70492       -2.33659
H          1.21518       -1.37123       -2.21899
H         -0.34239       -2.37881       -0.25038
H         -4.29054       -4.91216        0.12937
H         -5.78293       -4.17211       -0.52883
H         -5.52100       -4.21307        1.22416
H         -5.06608        2.94867        0.28966
H         -1.19122        5.50379       -0.22940
H         -0.01092        4.80694       -1.38053
H          0.34841        4.80082        0.35440
