34
COMP72_230001.log	Energy: -2219574.5418927
C          1.43870       -1.26990       -0.48364
C          0.09814       -1.01199        0.04509
C         -0.44302       -1.45661        1.21721
Cl         0.40052       -2.44501        2.34664
C         -1.78536       -1.01290        1.42720
C         -2.56296       -1.37264        2.56796
N         -3.19405       -1.66270        3.49586
C         -2.24550       -0.22953        0.38663
S         -1.03330       -0.03582       -0.82181
C         -3.55198        0.40415        0.24956
S         -4.27444        1.26201        1.56253
C         -5.65475        1.67342        0.62973
H         -6.46510        2.24635        1.05721
C         -5.56685        1.18369       -0.63606
Cl        -6.77937        1.40304       -1.84273
C         -4.36003        0.45029       -0.87060
C         -4.05419       -0.18701       -2.11020
N         -3.80555       -0.70178       -3.11844
C          2.56016       -0.48403       -0.38617
C          2.62931        0.82982        0.31131
O          1.67048        1.34804        0.85362
C          3.97176        1.45501        0.28534
C          4.27123        2.65484        0.86518
H          3.59714        3.29777        1.41435
S          5.92072        3.07049        0.62810
C          6.22963        1.63116       -0.25758
H          7.20897        1.41092       -0.65983
C          5.10686        0.86206       -0.36421
C          5.04077       -0.44094       -1.06408
O          5.99527       -0.95174       -1.61942
C          3.69873       -1.07543       -1.02732
C          3.41488       -2.28444       -1.59505
H          4.10406       -2.92178       -2.13253
S          1.77785       -2.72498       -1.36276
