42
COMP77_100000.log	Energy: -1749471.3806000
C          1.15973        1.21407       -0.36981
C         -0.16034        0.59880       -0.40323
C         -0.56003       -0.58978       -0.95769
H          0.10959       -1.30016       -1.41731
C         -1.95074       -0.78346       -0.83441
F         -2.54103       -1.88550       -1.31499
C         -2.64655        0.21786       -0.20183
S         -1.52302        1.45410        0.27165
C         -4.05573        0.35323        0.11087
C         -5.00277       -0.55202       -0.20546
C         -6.41341       -0.42244        0.10677
C         -7.10300        0.55475        0.77975
F         -6.51313        1.64128        1.29579
C         -8.49914        0.34662        0.90336
H         -9.16443        1.03359        1.41017
C         -8.87748       -0.81905        0.30687
H         -9.87196       -1.23715        0.24084
S         -7.54305       -1.64840       -0.39539
C          2.43337        0.68279       -0.25235
C          2.79978       -0.74894       -0.10769
O          1.99143       -1.66306       -0.18934
C          4.23590       -1.00969        0.13515
C          4.75474       -2.26332        0.34337
C          4.05584       -3.58591        0.39510
S          6.46841       -2.16254        0.56000
C          6.50763       -0.44516        0.36718
C          7.79292        0.31774        0.44236
C          5.23819        0.02460        0.14890
C          4.89718        1.44105       -0.05411
O          5.72161        2.34255       -0.06586
C          3.44672        1.70479       -0.22733
C          2.94606        2.96638       -0.33706
H          3.51331        3.88694       -0.33672
S          1.24256        2.95303       -0.48047
H         -4.34073        1.25880        0.63669
H         -4.71619       -1.45579       -0.73350
H          3.26992       -3.57259        1.15477
H          4.75492       -4.39592        0.62006
H          3.56553       -3.79380       -0.55995
H          8.63723       -0.34221        0.65856
H          7.73363        1.08646        1.21756
H          7.98085        0.83740       -0.50149
