70
COMP81_100033.log	Energy: -1985901.5362655
C          0.24628       -0.06609       -0.03001
C          1.70698       -0.20645       -0.02349
C          2.63478        0.73847       -0.31373
F          2.30470        1.96589       -0.72064
C          4.00544        0.30306       -0.24977
C          5.18879        1.02298       -0.46785
C          5.25467        2.50751       -0.61389
O          6.01522        3.07423       -1.36624
O          4.44219        3.12761        0.23935
C          4.40512        4.55159        0.13526
C          6.38595        0.30930       -0.49437
S          7.96433        0.96642       -0.86731
C          8.69868       -0.58575       -0.59825
H          9.75879       -0.73092       -0.75010
C          7.80724       -1.53716       -0.25862
F          8.13710       -2.81508       -0.08944
C          6.44596       -1.06774       -0.16332
C          5.27432       -1.76254        0.16947
C          5.33257       -3.13881        0.75262
O          6.13527       -3.49634        1.57690
O          4.34070       -3.91178        0.28657
C          4.25242       -5.21224        0.87440
C          4.06211       -1.08124        0.05496
S          2.46587       -1.74940        0.31904
C         -0.57614       -1.14721       -0.36843
C         -1.95774       -1.03128       -0.35447
C         -2.55265        0.18030        0.00589
C         -3.93889        0.65363        0.02504
C         -3.85990        2.11978        0.37689
O         -4.76613        2.88955        0.57068
N         -2.48764        2.42329        0.55220
C         -1.94493        3.66113        0.92378
O         -0.77299        3.82306        1.17387
O         -2.86215        4.61792        0.95337
C         -2.37342        5.90270        1.34258
C         -1.70891        1.26687        0.30783
C         -0.33005        1.16572        0.30907
C         -5.13199        0.01086       -0.14707
C         -5.26083       -1.48887       -0.01321
O         -4.40299       -2.28664        0.27097
N         -6.63158       -1.79435       -0.17104
C         -7.22193       -3.06193       -0.07375
O         -8.41713       -3.23331       -0.01597
O         -6.31732       -4.03162       -0.07283
C         -6.85231       -5.34954        0.05987
C         -7.36275       -0.60550       -0.41173
C         -8.71596       -0.48230       -0.68617
C         -9.20453        0.78938       -0.97666
H        -10.26281        0.91029       -1.18693
C         -8.35928        1.89468       -1.00851
C         -7.00622        1.75873       -0.72373
C         -6.49073        0.50085       -0.39678
H          3.67541        4.87658        0.87514
H          4.09267        4.84928       -0.86836
H          5.38915        4.97580        0.34719
H          3.39045       -5.68484        0.40590
H          4.11061       -5.13194        1.95446
H          5.16342       -5.77947        0.67179
H         -0.13261       -2.09376       -0.66119
H         -2.56651       -1.88346       -0.61128
H         -3.24836        6.55093        1.33993
H         -1.62628        6.25939        0.63002
H         -1.92938        5.85754        2.33934
H          0.27980        2.01510        0.57240
H         -5.98659       -6.00982        0.04082
H         -7.52926       -5.57519       -0.76701
H         -7.39051       -5.45003        1.00502
H         -9.36438       -1.34571       -0.67095
H         -8.75619        2.87532       -1.24978
H         -6.36235        2.62364       -0.73784
