47
COMP69_000003.log	Energy: -1359576.0637028
C          0.98584        0.96261        0.15238
C         -0.36816        0.48496        0.19624
C         -0.69010       -0.86157        0.33870
C         -2.06013       -1.10199        0.19145
C         -2.77813        0.04876       -0.07542
S         -1.80662        1.45087       -0.11080
C         -4.17356       -0.29512       -0.19999
C         -4.31219       -1.65306       -0.02027
C         -2.97120       -2.31675        0.24797
C         -2.61842       -3.33415       -0.84978
C         -2.93672       -2.98005        1.63472
C         -5.65875       -2.08396       -0.13595
C         -6.50111       -1.03893       -0.39895
H         -7.57365       -1.07106       -0.53445
S         -5.67506        0.48252       -0.51146
C          2.13404        0.20036        0.10736
C          2.58999       -1.18019        0.10314
O          2.01333       -2.23821        0.24391
N          4.02277       -1.03955       -0.09853
C          5.00699       -2.03485       -0.18156
O          6.17303       -1.77023       -0.35902
O          4.50030       -3.25022       -0.04464
C          5.45767       -4.30826       -0.12019
C          4.38347        0.30536       -0.21957
H          5.41532        0.56591       -0.39981
C          3.26918        1.05025       -0.08896
C          2.82763        2.43516       -0.14490
O          3.43052        3.47233       -0.22823
N          1.38197        2.31380       -0.00490
C          0.59761        3.43046        0.35904
O         -0.22478        3.41369        1.24172
O          0.89804        4.47147       -0.39944
C          0.25678        5.69478       -0.03059
H          0.06699       -1.61934        0.51188
H         -2.64398       -2.86544       -1.83777
H         -3.33125       -4.16596       -0.84196
H         -1.61521       -3.74080       -0.68453
H         -3.17856       -2.25704        2.41903
H         -1.94163       -3.39109        1.83447
H         -3.66134       -3.80022        1.68321
H         -5.99811       -3.10783       -0.03011
H          4.88367       -5.22270        0.02038
H          6.20988       -4.20049        0.66445
H          5.95079       -4.30833       -1.09479
H          0.65587        6.44333       -0.71281
H          0.49232        5.95043        1.00467
H         -0.82556        5.60309       -0.14528
