45
COMP41_400023.log	Energy: -1644412.0951070
C         -1.57101       -1.47905       -0.13268
C         -0.23705       -0.95710        0.03160
C          0.24169        0.30729       -0.24399
O         -0.45081        1.36977       -0.64686
C          1.68411        0.39943       -0.13425
C          2.52719        1.49727       -0.36049
O          2.09217        2.72450       -0.75136
C          1.54782        3.52581        0.29275
C          3.89554        1.29557       -0.21105
S          5.10165        2.53536       -0.44940
C          6.36269        1.40277       -0.03152
H          7.39547        1.72712       -0.02965
C          5.90243        0.16245        0.26131
O          6.64026       -0.92092        0.61326
C          4.46239        0.05506        0.16306
C          3.61791       -1.03889        0.39477
O          4.05945       -2.26506        0.79431
C          4.57203       -3.07752       -0.25728
C          2.25421       -0.83891        0.23341
S          1.05533       -2.07655        0.49080
C         -2.82546       -0.90562       -0.10389
C         -3.40431        0.40410        0.19412
O         -2.84617        1.44703        0.48698
N         -4.80425        0.23261        0.12992
C         -5.77087        1.24291        0.38060
O         -6.80519        1.03715        0.95216
O         -5.36513        2.40101       -0.12392
C         -6.23224        3.50709        0.14108
C         -5.18087       -1.11845       -0.18592
O         -6.30206       -1.51688       -0.32949
C         -3.88935       -1.82171       -0.31892
C         -3.49752       -3.10080       -0.52091
H         -4.10109       -3.98333       -0.68060
S         -1.77290       -3.19481       -0.46673
H         -1.35041        1.39769       -0.24143
H          1.30629        4.48640       -0.16314
H          2.28613        3.67124        1.09074
H          0.63791        3.07428        0.69744
H          7.57100       -0.66852        0.64176
H          4.80696       -4.04206        0.19456
H          5.48145       -2.63956       -0.67961
H          3.81924       -3.21345       -1.04345
H         -5.73662        4.37149       -0.29743
H         -6.36050        3.64052        1.21746
H         -7.20738        3.34307       -0.32253
