30
COMP52_120400.log	Energy: -2201420.6464812
C          1.30778       -0.07820       -0.48410
C         -0.09435        0.27976       -0.39111
C         -0.65179        1.52487       -0.33736
F          0.05825        2.64657       -0.37287
C         -2.07054        1.53653       -0.23647
Cl        -2.96525        3.00438       -0.14754
C         -2.61166        0.28010       -0.21512
S         -1.35648       -0.92052       -0.28911
C         -4.01745       -0.10740       -0.16590
S         -5.09291        0.23940       -1.48617
C         -6.42354       -0.51204       -0.69588
H         -7.40399       -0.55094       -1.14701
C         -6.05147       -1.00691        0.51187
F         -6.86513       -1.63880        1.34904
C         -4.67851       -0.78382        0.82439
Cl        -3.98221       -1.30459        2.31081
C          1.87691       -1.07036       -1.25651
O          1.25228       -1.89236       -2.11692
N          3.21765       -1.23358       -1.13369
C          3.70093       -0.37290       -0.28024
S          2.55719        0.70454        0.44136
C          5.11415       -0.29332        0.05158
S          6.26457       -1.37192       -0.66321
C          7.49759       -0.58621        0.25017
H          8.53296       -0.88836        0.18248
C          6.94665        0.41241        1.00965
O          7.57600        1.25210        1.85508
N          5.60066        0.57397        0.89531
H          0.34037       -1.59669       -2.24628
H          8.51886        1.04998        1.85726
