27
COMP22_220000.log	Energy: -2309465.6014642
C          2.71331        0.98043        0.05899
C          1.32059        0.59503        0.33403
C          0.84488       -0.36332        1.18584
Cl         1.84279       -1.32640        2.20793
C         -0.58227       -0.44749        1.19357
Cl        -1.45772       -1.54191        2.19302
C         -1.17913        0.44490        0.34568
S          0.01699        1.39299       -0.47524
C         -2.60454        0.63365        0.09392
S         -3.44290        2.04636        0.65655
C         -4.93372        1.50610       -0.00255
H         -5.83553        2.09360        0.09291
C         -4.80111        0.29955       -0.61745
Cl        -6.10241       -0.53124       -1.38820
C         -3.46252       -0.20347       -0.56678
Cl        -2.98322       -1.69188       -1.28432
C          3.64379        0.02970       -0.47727
N          3.38149       -1.23868       -0.79018
S          4.76852       -1.86359       -1.35969
N          5.74831       -0.57056       -1.24474
C          5.00449        0.41796       -0.74346
C          5.43733        1.75223       -0.49347
H          6.46452        2.02992       -0.70059
C          4.52323        2.63769       -0.00487
H          4.81489        3.66415        0.19288
C          3.17257        2.25398        0.26933
H          2.49364        2.99722        0.67699
