44
COMP97_200001.log	Energy: -1912212.1316008
C          1.64575       -0.29419        0.33188
C          0.18687       -0.36519        0.56696
C         -0.44100       -1.01008        1.59076
H          0.07336       -1.48595        2.41677
C         -1.85615       -0.96990        1.47103
Cl        -2.84858       -1.72531        2.67979
C         -2.31894       -0.31964        0.34996
S         -0.95498        0.25862       -0.56738
C         -3.63852       -0.05122       -0.19977
C         -4.82206       -0.35743        0.36424
C         -6.14311       -0.09313       -0.18421
C         -6.60643        0.45894       -1.35770
Cl        -5.60980        1.05105       -2.65220
C         -8.02355        0.51769       -1.46858
H         -8.53416        0.92464       -2.33217
C         -8.64311        0.00568       -0.37054
H         -9.70521       -0.07742       -0.18762
S         -7.51132       -0.54751        0.79672
C          2.28349       -1.51347       -0.00682
C          3.62419       -1.56867       -0.28667
C          4.24533       -2.87507       -0.63889
O          3.63579       -3.92222       -0.67779
N          5.60295       -2.82194       -0.92790
H          6.03794       -3.70466       -1.17128
C          6.44193       -1.71347       -0.92761
O          7.61768       -1.82030       -1.20402
C          5.79214       -0.42439       -0.56576
C          6.54454        0.72649       -0.53367
H          7.60051        0.67118       -0.77537
C          5.94125        1.94779       -0.18696
C          4.60142        2.00165        0.12351
C          4.00682        3.30969        0.49925
O          4.62658        4.35203        0.53217
N          2.66352        3.25973        0.83205
H          2.24910        4.13299        1.13755
C          1.81141        2.16020        0.86884
O          0.67786        2.29380        1.27455
C          2.40440        0.86824        0.40376
C          3.79541        0.83265        0.09485
C          4.40934       -0.39176       -0.25656
H         -3.62915        0.45247       -1.16000
H         -4.83029       -0.84968        1.33045
H          1.69706       -2.42505       -0.05758
H          6.51698        2.86665       -0.15532
