32
COMP42_320000.log	Energy: -1932747.4642210
C         -2.34230        0.76364        0.16530
C         -0.90412        0.88496       -0.03714
C         -0.14036        2.03969       -0.12983
C         -0.64331        3.37289       -0.08858
N         -1.03169        4.46502       -0.05688
C          1.25249        1.76530       -0.28750
Cl         2.43671        3.00785       -0.42558
C          1.54078        0.43097       -0.31205
S          0.10054       -0.51725       -0.16377
C          2.84741       -0.20654       -0.45931
S          3.63613       -0.32073       -2.00348
C          4.98019       -1.13229       -1.33170
H          5.81365       -1.43779       -1.94887
C          4.84830       -1.32002        0.01883
C          5.82908       -1.97149        0.82630
N          6.63146       -2.50319        1.47113
C          3.61488       -0.78391        0.51369
Cl         3.16711       -0.85337        2.17448
C         -3.16451       -0.32569        0.01023
C         -3.05913       -1.74754       -0.41868
O         -2.08674       -2.38760       -0.75197
N         -4.36223       -2.24730       -0.35555
C         -4.71315       -3.61305       -0.68448
C         -5.30673       -1.30897        0.08385
O         -6.48554       -1.52681        0.22022
C         -4.52190       -0.07064        0.31788
C         -4.76655        1.20058        0.72182
H         -5.70420        1.65723        1.00787
S         -3.31029        2.11694        0.72375
H         -3.80447       -4.11867       -1.01215
H         -5.45782       -3.62612       -1.48354
H         -5.12510       -4.11793        0.19265
