45
COMP21_300330.log	Energy: -1721065.5562668
C         -2.71756       -0.35578       -0.01425
C         -1.24778       -0.25554       -0.08134
C         -0.53421        0.90340       -0.19837
C         -1.22338        2.15496       -0.22389
N         -1.86525        3.12031       -0.19629
C          0.90119        0.68280       -0.17159
C          1.96249        1.59455       -0.28807
C          1.80398        3.02568       -0.68556
O          2.52289        3.91317       -0.28573
O          0.83494        3.18142       -1.58050
C          0.54186        4.53108       -1.96244
C          3.25489        1.12402       -0.06196
S          4.70145        2.10826       -0.02699
C          5.66598        0.71216        0.26823
H          6.73198        0.81754        0.42264
C          4.96820       -0.45349        0.34242
C          5.61387       -1.66382        0.74249
N          6.17740       -2.59950        1.13023
C          3.54483       -0.25036        0.13160
C          2.49824       -1.17997        0.10917
C          2.77879       -2.64719        0.02944
O          3.66371       -3.11905       -0.63770
O          1.90103       -3.36232        0.74102
C          2.06423       -4.78499        0.66155
C          1.19328       -0.69125        0.02595
S         -0.25835       -1.66246        0.10746
C         -3.41471        0.19392        1.10689
N         -2.84900        0.78707        2.15846
S         -4.06493        1.24802        3.12511
N         -5.34176        0.71328        2.27985
C         -4.84623        0.14475        1.17785
C         -5.59846       -0.47539        0.14616
H         -6.67942       -0.51796        0.20575
C         -4.91818       -1.01448       -0.91180
C         -5.65289       -1.65283       -1.96759
N         -6.26314       -2.16708       -2.80692
C         -3.47393       -0.95126       -0.99817
C         -2.83023       -1.50012       -2.15827
N         -2.30832       -1.94191       -3.09318
H         -0.25644        4.45402       -2.69774
H          1.42963        4.99926       -2.39149
H          0.20312        5.09747       -1.09291
H          1.29618       -5.19995        1.31196
H          3.06135       -5.06364        1.00757
H          1.92738       -5.12384       -0.36745
