52
COMP71_300022.log	Energy: -1977980.8730369
C          0.83537        1.84554        0.44892
C         -0.51201        1.29164        0.33983
C         -1.00072        0.19427        0.99077
C         -0.21185       -0.54530        1.92172
N          0.44819       -1.12714        2.67657
C         -2.37114       -0.10595        0.64277
C         -3.17815       -1.17033        1.05824
O         -2.73210       -2.12520        1.91739
C         -1.98755       -3.17620        1.29615
C         -4.48191       -1.20946        0.57939
S         -5.65973       -2.43829        0.97666
C         -6.83250       -1.67718       -0.03822
H         -7.82158       -2.10410       -0.13782
C         -6.38268       -0.54659       -0.64892
C         -7.21133        0.23216       -1.51313
N         -7.91194        0.85887       -2.19199
C         -5.00683       -0.24018       -0.30658
C         -4.19463        0.81406       -0.73557
O         -4.63210        1.74263       -1.62983
C         -5.26096        2.88252       -1.04507
C         -2.89023        0.85325       -0.25685
S         -1.69378        2.04248       -0.70034
C          2.04732        1.23934        0.20916
C          2.24770       -0.13716       -0.33900
O          1.31916       -0.85850       -0.65977
C          3.66057       -0.52947       -0.46855
C          4.07231       -1.76787       -0.87883
O          3.28490       -2.77040       -1.24938
C          3.86694       -4.03907       -1.49501
S          5.82856       -1.90863       -0.89230
C          5.98704       -0.24667       -0.33171
O          7.16984        0.31939       -0.12397
C          8.34023       -0.46189       -0.29207
C          4.77051        0.35036       -0.15306
C          4.57776        1.72932        0.31609
O          5.48106        2.50984        0.56289
C          3.14964        2.11447        0.47660
C          2.75947        3.35247        0.89717
H          3.40972        4.17650        1.15740
S          1.05666        3.48174        0.98815
H         -1.59950       -3.78859        2.10967
H         -1.15138       -2.77905        0.71159
H         -2.63876       -3.77654        0.64967
H         -5.58741        3.50541       -1.87753
H         -4.55522        3.43784       -0.41586
H         -6.13294        2.58970       -0.45071
H          3.04142       -4.69576       -1.76633
H          4.36334       -4.42344       -0.59639
H          4.58122       -3.99018       -2.32632
H          9.17268        0.20144       -0.06135
H          8.43082       -0.81749       -1.32583
H          8.34605       -1.31315        0.39914
