38
COMP62_300002.log	Energy: -1259774.4284005
C         -1.75951       -0.58012       -0.04721
C         -0.35957       -0.91958        0.10853
C          0.25307       -2.04434        0.63377
C         -0.41875       -3.15688        1.22381
N         -0.89958       -4.07093        1.75004
C          1.67119       -1.95341        0.63944
H          2.31217       -2.72449        1.04978
C          2.12866       -0.77275        0.11570
S          0.82147        0.23541       -0.39155
C          3.50678       -0.32789       -0.03464
S          4.77911       -1.47148       -0.35003
C          5.96498       -0.23734       -0.37113
H          7.00780       -0.46771       -0.53832
C          5.40977        0.99904       -0.16265
C          6.17603        2.20629       -0.13556
N          6.79357        3.18671       -0.11470
C          3.99563        0.94739        0.03308
H          3.38762        1.82010        0.24063
C         -2.34689        0.65500        0.03058
C         -2.08279        2.02626        0.46037
O         -1.08821        2.63355        0.79580
N         -3.38281        2.60489        0.35538
O         -3.66375        3.87856        0.74744
C         -3.23020        4.82172       -0.23922
C         -4.34945        1.71842       -0.05146
H         -5.37847        2.03847       -0.13558
C         -3.74652        0.51942       -0.26640
C         -4.01827       -0.86313       -0.62343
O         -4.98843       -1.44221       -1.05077
N         -2.75598       -1.50134       -0.34243
O         -2.42772       -2.69416       -0.93884
C         -3.19478       -3.78198       -0.39652
H         -3.50509        5.79484        0.16862
H         -3.74692        4.64996       -1.18987
H         -2.14741        4.76162       -0.37240
H         -2.67169       -4.67742       -0.73272
H         -4.21186       -3.75151       -0.78873
H         -3.19332       -3.74461        0.69454
