38
COMP51_000020.log	Energy: -1597280.0420667
C          1.74108        0.54786       -0.03957
C          0.29449        0.42446       -0.00421
C         -0.45314       -0.69075       -0.21575
H         -0.03406       -1.65706       -0.47209
C         -1.86567       -0.45187       -0.11179
C         -2.91561       -1.36115       -0.27098
O         -2.67807       -2.67590       -0.56265
C         -2.42688       -3.47856        0.58564
C         -4.21411       -0.88355       -0.14393
S         -5.67930       -1.82201       -0.30283
C         -6.64329       -0.40772        0.03393
H         -7.72118       -0.50019        0.05654
C         -5.91617        0.71179        0.24454
H         -6.34356        1.67897        0.47846
C         -4.49823        0.47396        0.14285
C         -3.44655        1.38339        0.29903
O         -3.67897        2.70018        0.58969
C         -3.93420        3.49990       -0.55924
C         -2.15023        0.90550        0.17315
S         -0.68755        1.84390        0.34873
C          2.49811        1.68038       -0.19963
H          2.09160        2.67600       -0.33541
N          3.85101        1.50835       -0.20033
C          4.15210        0.25018       -0.04260
S          2.79479       -0.82217        0.13059
C          5.51398       -0.25778       -0.00656
S          6.87589        0.81058       -0.17343
C          7.90933       -0.55746       -0.01824
H          8.98495       -0.45953       -0.05433
C          7.16965       -1.69059        0.14451
H          7.57625       -2.68688        0.26584
N          5.81173       -1.51703        0.15054
H         -2.27068       -4.49486        0.22127
H         -3.28167       -3.46079        1.27232
H         -1.53069       -3.13607        1.11750
H         -4.08413        4.51821       -0.19756
H         -4.83474        3.15901       -1.08471
H         -3.08404        3.47698       -1.25166
