30
COMP52_120300.log	Energy: -2222764.9768025
C          1.12843       -0.36925       -0.17592
C         -0.24644        0.08569       -0.17551
C         -0.67251        1.38034       -0.02422
F          0.15653        2.40489        0.14520
C         -2.07794        1.55330       -0.05297
Cl        -2.81968        3.09210        0.14206
C         -2.73851        0.36674       -0.22610
S         -1.62863       -0.95649       -0.36560
C         -4.17786        0.13869       -0.31458
S         -5.08804        0.65075       -1.70132
C         -6.55833        0.04204       -1.04894
H         -7.49555        0.13376       -1.57771
C         -6.35073       -0.52801        0.16557
F         -7.30075       -1.07925        0.90969
C         -4.99223       -0.48080        0.59505
Cl        -4.48305       -1.11674        2.11102
C          1.63906       -1.64750       -0.32655
C          0.85142       -2.82490       -0.52407
N          0.19988       -3.76987       -0.68647
N          3.00051       -1.76984       -0.28367
C          3.54943       -0.60704       -0.10264
S          2.45458        0.73339        0.03100
C          4.98782       -0.40798       -0.01456
S          6.09508       -1.74485       -0.14538
C          7.38713       -0.63838        0.05446
H          8.42088       -0.95365        0.05562
C          6.89965        0.63281        0.20230
C          7.72575        1.78917        0.38864
N          8.41729        2.70608        0.53746
N          5.53466        0.75844        0.16222
