34
COMP57_130200.log	Energy: -2271324.7870147
C         -1.73193       -0.37390        0.36432
C         -0.34929        0.07265        0.40780
C          0.12271        1.32899        0.74576
C         -0.67389        2.41899        1.20372
N         -1.30748        3.31501        1.57671
C          1.53449        1.42117        0.61781
F          2.17546        2.54994        0.91447
C          2.15644        0.27914        0.19159
S          0.95893       -0.95221       -0.06555
C          3.56088       -0.00905       -0.03473
C          4.55403        0.89136        0.09151
C          5.96012        0.60930       -0.13366
C          6.59379       -0.54877       -0.49736
F          5.96344       -1.69995       -0.72198
C          8.00956       -0.44484       -0.62523
C          8.85647       -1.53188       -0.99497
N          9.54432       -2.41449       -1.29523
C          8.44496        0.82564       -0.34830
H          9.46435        1.18376       -0.36878
S          7.15025        1.86550        0.05753
C         -2.28290       -1.59072        0.70029
Cl        -1.40063       -2.93564        1.32558
N         -3.62002       -1.72671        0.54303
C         -4.12990       -0.61918        0.07674
S         -3.00823        0.66468       -0.20019
C         -5.54763       -0.44649       -0.19399
S         -6.69266       -1.71504        0.09923
C         -7.93295       -0.66785       -0.46470
H         -8.96919       -0.96884       -0.50751
C         -7.38939        0.53146       -0.82188
Cl        -8.30074        1.86084       -1.44002
N         -6.04543        0.66063       -0.67149
H          3.79456       -1.02807       -0.32563
H          4.31779        1.91075        0.37909
