62
COMP87_140003.log	Energy: -1795103.7514022
C         -0.52869        0.45022       -0.13825
C         -1.98430        0.54135       -0.23532
C         -2.72545        1.49887       -0.88921
O         -2.29849        2.57086       -1.58702
C         -4.12231        1.24270       -0.80620
F         -5.00000        2.06397       -1.38849
C         -4.47024        0.11581       -0.11410
S         -3.02826       -0.66557        0.46500
C         -5.77063       -0.45857        0.17059
C         -6.94777        0.06798       -0.21958
C         -8.24639       -0.51485        0.05844
C         -8.59757       -1.64843        0.73597
F         -7.73184       -2.50149        1.31879
C         -9.99337       -1.91644        0.81139
O        -10.51482       -2.99378        1.44216
C        -10.72100       -0.95769        0.17276
H        -11.79474       -0.90792        0.07196
S         -9.69943        0.25574       -0.51090
C          0.12795       -0.78852       -0.13394
C          1.50982       -0.87450       -0.07582
C          2.28592        0.28964       -0.05735
C          3.71958        0.55028        0.10131
C          3.85082        2.05262        0.17697
O          4.85557        2.71694        0.20422
N          2.53998        2.57910        0.08113
C          2.18928        3.92948       -0.05831
O          1.11620        4.29095       -0.48494
O          3.15683        4.73555        0.34879
C          2.88546        6.13040        0.18845
C          1.61135        1.52396       -0.04299
C          0.23227        1.62697       -0.05876
C          4.80500       -0.27842        0.13787
C          4.74597       -1.69413       -0.38309
O          3.82498       -2.24469       -0.93295
N          6.03540       -2.24544       -0.21200
C          6.45153       -3.53114       -0.58421
O          7.60948       -3.87807       -0.58570
O          5.42797       -4.30891       -0.90891
C          5.78632       -5.63049       -1.31682
C          6.89384       -1.28126        0.37140
C          8.21594       -1.44378        0.75510
C          8.84442       -0.37127        1.38357
H          9.88184       -0.47581        1.68643
C          8.16350        0.81691        1.63090
C          6.84003        0.96943        1.23592
C          6.18836       -0.07965        0.58053
H         -1.33483        2.54789       -1.66992
H         -5.76324       -1.38474        0.73706
H         -6.95620        0.99341       -0.78652
H         -9.78600       -3.51220        1.80774
H         -0.45268       -1.70332       -0.20116
H          1.98320       -1.84355       -0.08212
H          3.77841        6.63540        0.55266
H          2.00997        6.41869        0.77431
H          2.71098        6.36564       -0.86357
H         -0.24037        2.59417        0.04140
H          4.84274       -6.11770       -1.55705
H          6.29736       -6.15515       -0.50635
H          6.43777       -5.59782       -2.19288
H          8.73454       -2.37236        0.56865
H          8.66660        1.63884        2.12980
H          6.32701        1.90025        1.41865
