30
COMP52_230200.log	Energy: -2675044.7334974
C         -1.10629        0.34263        0.53715
C          0.29229        0.61554        0.22642
C          0.82937        1.71924       -0.37830
Cl        -0.09002        3.08573       -0.87863
C          2.24487        1.63939       -0.55559
C          3.01367        2.66484       -1.18269
N          3.63660        3.50055       -1.68938
C          2.76848        0.45433       -0.07491
S          1.52868       -0.54418        0.58524
C          4.16521        0.03512       -0.05423
S          5.42287        1.12804        0.40187
C          6.63493       -0.06873        0.19917
H          7.67702        0.15951        0.37162
C          6.10461       -1.25776       -0.19525
Cl         7.03457       -2.67625       -0.50210
C          4.68189       -1.21346       -0.34423
C          3.90020       -2.32812       -0.77155
N          3.26537       -3.23536       -1.11396
C         -1.70472        0.20953        1.76451
Cl        -0.87570        0.38020        3.26742
N         -3.03326       -0.05738        1.77652
C         -3.48026       -0.13631        0.55250
S         -2.30685        0.10563       -0.69387
C         -4.87306       -0.40579        0.23127
S         -6.06092       -0.64680        1.47056
C         -7.23903       -0.86740        0.23946
H         -8.27632       -1.07062        0.46039
C         -6.64835       -0.74273       -0.98409
Cl        -7.48782       -0.89617       -2.48480
N         -5.31464       -0.48257       -0.99358
