56
COMP91_400013.log	Energy: -1714955.0128390
C          0.23677       -0.05718        0.01598
C         -1.21572       -0.29650       -0.02559
C         -1.91097       -1.09200        0.83047
O         -1.44452       -1.71877        1.93579
C         -3.30171       -1.24458        0.48404
C         -4.27324       -1.97625        1.16395
H         -4.02154       -2.51022        2.07404
C         -5.55349       -1.98744        0.63038
S         -6.95530       -2.81740        1.27323
C         -7.94606       -2.22138       -0.04097
H         -8.99362       -2.48920       -0.08593
C         -7.25913       -1.44359       -0.90964
O         -7.71668       -0.82591       -2.02712
C         -5.86768       -1.28308       -0.55626
C         -4.89574       -0.54819       -1.23331
H         -5.14822       -0.00932       -2.14022
C         -3.61611       -0.53683       -0.69939
S         -2.22148        0.30028       -1.34285
C          1.06569       -1.20785       -0.07238
C          2.43242       -1.10994       -0.12299
C          3.24862       -2.34923       -0.20953
O          2.78009       -3.46638       -0.18808
N          4.62723       -2.15487       -0.32068
C          5.44020       -3.35297       -0.45185
O          5.73516       -3.82928       -1.50730
O          5.76903       -3.78846        0.75033
C          6.57120       -4.97568        0.76146
C          5.31259       -0.93562       -0.31510
O          6.52217       -0.90957       -0.37965
C          4.46438        0.28057       -0.22147
C          5.06045        1.52073       -0.22916
H          6.13977        1.58722       -0.31219
C          4.26868        2.67813       -0.13254
C          2.89998        2.58019       -0.01847
C          2.10439        3.82717        0.09317
O          2.57859        4.94013        0.02056
N          0.74122        3.63918        0.31020
C         -0.04042        4.82753        0.60819
O         -0.05726        5.34512        1.68554
O         -0.69009        5.20463       -0.47725
C         -1.54556        6.33985       -0.30048
C          0.04581        2.42394        0.38099
O         -1.12238        2.42894        0.69717
C          0.84156        1.19598        0.09184
C          2.25580        1.31647       -0.01194
C          3.05811        0.15788       -0.11971
H         -0.54248       -1.42758        2.12130
H         -8.65547       -1.01762       -2.13710
H          0.60645       -2.19010       -0.12944
H          6.74512       -5.19539        1.81326
H          7.51437       -4.79469        0.24190
H          6.03489       -5.79412        0.27683
H          4.72008        3.66427       -0.14281
H         -2.00896        6.50532       -1.27139
H         -0.95802        7.20862        0.00366
H         -2.30077        6.12215        0.45755
