35
COMP27_310400.log	Energy: -1539062.8458719
C         -3.05983        0.45420       -0.18543
C         -1.65692        0.05694       -0.31822
C         -1.17512       -1.13472       -0.77835
F         -1.93891       -2.10524       -1.25901
C          0.24044       -1.27088       -0.73491
C          0.90201       -2.44525       -1.19070
N          1.45057       -3.39848       -1.55976
C          0.85548       -0.13732       -0.22613
S         -0.32851        1.05446        0.17700
C          2.25172        0.18738       -0.00216
C          3.29240       -0.64026       -0.22012
C          4.68922       -0.31755        0.00658
C          5.31691        0.84305        0.43217
C          4.67142        2.06830        0.75821
N          4.14125        3.06537        1.02371
C          6.73383        0.68646        0.50858
F          7.51601        1.68676        0.89623
C          7.18322       -0.54415        0.15536
H          8.20454       -0.89338        0.13393
S          5.86356       -1.55604       -0.28516
C         -4.00748       -0.41213        0.46015
N         -3.73458       -1.58873        1.01194
S         -5.13979       -2.16277        1.60709
N         -6.14211       -0.94143        1.19638
C         -5.39454       -0.03783        0.57151
C         -5.85180        1.21031        0.05561
H         -6.89712        1.48640        0.14719
C         -4.93106        2.01870       -0.52983
O         -5.18758        3.24179       -1.06817
C         -3.53559        1.65078       -0.65572
O         -2.70883        2.52431       -1.25834
H          2.43045        1.18830        0.37967
H          3.11239       -1.64351       -0.59467
H         -6.12581        3.45386       -0.99401
H         -3.22286        3.30200       -1.52351
