38
COMP51_300000.log	Energy: -1618650.9249869
C         -1.85569       -0.42888       -0.21196
C         -0.41446       -0.25498       -0.13908
C          0.33875        0.89227       -0.18159
C         -0.28139        2.16576       -0.34446
N         -0.81051        3.19020       -0.47784
C          1.77433        0.65767       -0.09659
C          2.84413        1.56598       -0.10353
C          2.72356        3.06453       -0.19237
C          4.11415        0.99622       -0.02132
S          5.58978        1.94441       -0.01944
C          6.54661        0.52005        0.10339
H          7.62551        0.58862        0.14431
C          5.81629       -0.62745        0.14259
C          6.47924       -1.88814        0.24879
N          7.05426       -2.89183        0.33559
C          4.37971       -0.39343        0.06977
C          3.31024       -1.30082        0.08111
C          3.44020       -2.79758        0.18035
C          2.04270       -0.73116       -0.00268
S          0.57326       -1.67919        0.01997
C         -2.51316       -1.53252       -0.70244
H         -2.02339       -2.39191       -1.14636
N         -3.86973       -1.50766       -0.63130
C         -4.27371       -0.39293       -0.08264
S         -3.02315        0.71469        0.37752
C         -5.67330       -0.06394        0.13674
S         -6.94417       -1.14697       -0.34499
C         -8.08100       -0.01037        0.26652
H         -9.14489       -0.19432        0.21899
C         -7.43468        1.07682        0.77668
H         -7.91748        1.93735        1.22233
N         -6.06964        1.04184        0.70142
H          1.69607        3.41948       -0.16767
H          3.17828        3.43049       -1.12077
H          3.25438        3.53713        0.64261
H          4.47289       -3.14065        0.18699
H          2.93727       -3.28047       -0.66606
H          2.96420       -3.16317        1.09821
