33
COMP41_100012.log	Energy: -1459721.1996966
C         -1.68590        1.03873       -0.04853
C         -0.29393        0.63288       -0.04372
C          0.78976        1.45212        0.03755
F          0.69842        2.78354        0.12355
C          2.06611        0.81089        0.02703
C          3.33227        1.39262        0.10132
H          3.44548        2.46851        0.17957
C          4.42079        0.53616        0.07272
S          6.11535        0.97973        0.14953
C          6.59677       -0.69482        0.04902
H          7.64100       -0.97193        0.05926
C          5.53750       -1.52212       -0.03732
F          5.62176       -2.85109       -0.12535
C          4.25608       -0.86842       -0.02814
C          2.99030       -1.44582       -0.10192
H          2.87624       -2.52170       -0.18014
C          1.89855       -0.59020       -0.07264
S          0.21302       -1.05467       -0.14447
C         -2.83702        0.29438       -0.09986
C         -3.21778       -1.13945       -0.16142
O         -2.55430       -2.14633       -0.19819
N         -4.62395       -1.10547       -0.14622
O         -5.36140       -2.22951       -0.34306
C         -5.69738       -2.83643        0.90721
C         -5.20937        0.17256       -0.12346
O         -6.38973        0.40892       -0.12136
C         -4.02844        1.07088       -0.08048
C         -3.81629        2.40648       -0.01676
H         -4.54085        3.20860        0.01007
S         -2.12400        2.74027        0.01940
H         -6.27562       -3.72158        0.64009
H         -6.30770       -2.15818        1.51124
H         -4.79124       -3.13012        1.44551
