32
COMP52_030400.log	Energy: -1615865.2209273
C          0.88827        0.15851        0.19244
C         -0.50290       -0.25188        0.23657
C         -1.03995       -1.38009        0.79534
H         -0.45770       -2.12387        1.32542
C         -2.45548       -1.45048        0.65267
C         -3.23326       -2.51864        1.19837
N         -3.84792       -3.39447        1.64439
C         -2.99825       -0.36521       -0.00771
S         -1.74395        0.71332       -0.51127
C         -4.39638       -0.07589       -0.29659
S         -5.46057       -1.27901       -0.93165
C         -6.78179       -0.18033       -0.97961
H         -7.74979       -0.51429       -1.32663
C         -6.43634        1.05951       -0.53832
H         -7.11594        1.89979       -0.47821
C         -5.06550        1.12578       -0.14530
C         -4.45955        2.30447        0.38878
N         -3.96872        3.26198        0.82108
C          1.42778        1.41883        0.35968
O          0.77915        2.56894        0.59867
N          2.78037        1.50540        0.27358
C          3.29913        0.33013        0.05122
S          2.17585       -0.98042       -0.07914
C          4.72741        0.09763       -0.08348
S          5.87106        1.39097        0.04270
C          7.12793        0.24211       -0.22449
H          8.16774        0.53534       -0.25022
C          6.58839       -1.00737       -0.38457
O          7.23672       -2.16650       -0.61119
N          5.23308       -1.08456       -0.30406
H         -0.14962        2.40182        0.81195
H          8.18538       -1.99711       -0.64722
