37
COMP21_200300.log	Energy: -1945556.9249701
C          2.46202        0.24773       -0.07098
C          0.99047        0.19215       -0.03318
C          0.22790       -0.64117        0.71347
Cl         0.97664       -1.77711        1.79234
C         -1.20161       -0.47731        0.52545
C         -2.28081       -1.14716        1.12408
C         -2.12261       -2.23500        2.15575
C         -3.54714       -0.74590        0.70364
S         -5.03979       -1.44786        1.30531
C         -5.97821       -0.40966        0.29059
H         -7.05776       -0.46840        0.29525
C         -5.22394        0.42124       -0.45880
Cl        -5.97914        1.53688       -1.55923
C         -3.79226        0.27265       -0.25715
C         -2.71341        0.95293       -0.84354
C         -2.87104        2.05629       -1.85893
C         -1.44720        0.54452       -0.42975
S          0.03984        1.24397       -1.04066
C          3.20033       -0.73577       -0.80147
N          2.67306       -1.75160       -1.48558
S          3.92379       -2.56670       -2.12039
N          5.17006       -1.68316       -1.57075
C          4.63432       -0.69476       -0.85087
C          5.34968        0.33141       -0.17796
H          6.43185        0.36321       -0.21913
C          4.63173        1.26736        0.51480
C          5.33052        2.31455        1.20586
N          5.91511        3.15018        1.75494
C          3.18441        1.22648        0.57103
C          2.49504        2.22651        1.33685
N          1.94188        3.03279        1.95768
H         -1.58106       -3.09368        1.74955
H         -3.09344       -2.59455        2.50541
H         -1.57155       -1.87780        3.02940
H         -3.50457        2.86037       -1.47738
H         -3.32637        1.68607       -2.78186
H         -1.90591        2.49806       -2.11952
