42
COMP61_100000.log	Energy: -1271428.3057825
C         -2.33397        0.57002        0.25536
C         -0.89392        0.37939        0.22814
C          0.06331        1.22189       -0.23956
F         -0.23854        2.41388       -0.76787
C          1.41540        0.73471       -0.17262
C          2.61663        1.34710       -0.56291
C          2.72581        2.72415       -1.16161
C          3.76384        0.58696       -0.35946
S          5.38268        1.13277       -0.76255
C          6.06390       -0.36381       -0.19762
H          7.12863       -0.54324       -0.23567
C          5.12351       -1.21055        0.26162
F          5.42540       -2.42198        0.74485
C          3.76479       -0.71908        0.19620
C          2.56515       -1.33105        0.58112
C          2.45506       -2.71170        1.17098
C          1.41440       -0.57155        0.37864
S         -0.19520       -1.12973        0.77250
C         -3.31591       -0.32737       -0.06418
C         -3.54287       -1.66005       -0.61216
O         -2.80412       -2.57408       -0.92124
N         -4.96540       -1.71931       -0.72651
C         -5.65350       -2.88888       -1.22325
C         -5.55120       -0.54733       -0.30358
H         -6.62613       -0.42629       -0.34540
C         -4.58581        0.31277        0.11132
C         -4.35678        1.66554        0.59999
O         -5.10138        2.56532        0.92964
N         -2.93335        1.75708        0.65850
C         -2.29239        2.91136        1.25292
H          1.75764        3.20652       -1.27352
H          3.19714        2.67229       -2.15040
H          3.35685        3.36435       -0.53324
H          3.42507       -3.19080        1.28152
H          1.82777       -3.34872        0.53565
H          1.97998       -2.66802        2.15849
H         -4.89061       -3.64093       -1.43215
H         -6.19670       -2.66397       -2.14654
H         -6.35112       -3.28057       -0.47654
H         -3.03788        3.40761        1.87649
H         -1.94191        3.61257        0.49285
H         -1.44770        2.59391        1.86939
