42
COMP51_100230.log	Energy: -2440771.9123267
C          1.55203       -0.84845        0.08539
C          0.12500       -0.58495        0.09388
C         -0.45637        0.64411        0.04277
F          0.27215        1.75658       -0.07913
C         -1.89173        0.66346        0.04619
C         -2.78560        1.74472       -0.01633
C         -2.39577        3.17750        0.14244
O         -2.93766        4.08618       -0.44550
O         -1.45354        3.34201        1.06887
C         -1.01643        4.68773        1.27028
C         -4.14081        1.45624       -0.16603
S         -5.42757        2.63381       -0.30889
C         -6.61712        1.36633       -0.30555
H         -7.67208        1.59516       -0.35880
C         -6.07468        0.13508       -0.23700
F         -6.80215       -0.97613       -0.16830
C         -4.63229        0.12516       -0.18199
C         -3.74168       -0.95292       -0.09187
C         -4.20541       -2.36275       -0.28907
O         -4.99925       -2.70985       -1.12553
O         -3.57592       -3.20138        0.54612
C         -3.86653       -4.58890        0.35492
C         -2.38240       -0.66524        0.03928
S         -1.09650       -1.84810        0.15012
C          2.25306       -2.03209        0.18908
Cl         1.55087       -3.59972        0.37837
N          3.60429       -1.96376        0.14517
C          3.98480       -0.72451        0.00550
S          2.71536        0.44308       -0.08010
C          5.38107       -0.32993       -0.07564
S          6.65682       -1.50358        0.00711
C          7.79024       -0.22145       -0.16139
H          8.85665       -0.39026       -0.17777
C          7.12351        0.96354       -0.26395
Cl         7.89790        2.49697       -0.44923
N          5.76614        0.90851       -0.21615
H         -0.25087        4.63108        2.04239
H         -1.85032        5.31339        1.59615
H         -0.60061        5.09438        0.34562
H         -3.24096       -5.11858        1.07166
H         -3.62600       -4.88974       -0.66714
H         -4.92419       -4.78117        0.54745
