35
COMP47_330001.log	Energy: -1495580.2714878
C         -3.40229        0.36605        0.08633
C         -1.98658        0.70499        0.04920
C         -1.39638        1.95793        0.05023
C         -2.09197        3.20334        0.06409
N         -2.62992        4.23037        0.07603
C          0.03350        1.91095        0.03207
C          0.83471        3.08991        0.03901
N          1.50072        4.03930        0.04024
C          0.52796        0.62077        0.01491
S         -0.76563       -0.52543        0.01414
C          1.88534        0.10167       -0.00325
C          3.00129        0.84237       -0.14515
C          4.36189        0.33107       -0.14446
C          4.88052       -0.92210        0.12836
C          4.10293       -2.05592        0.50361
N          3.45995       -2.97251        0.80574
C          6.31106       -0.97097        0.00908
C          7.09257       -2.14465        0.24002
N          7.73207       -3.09255        0.42557
C          6.84782        0.23615       -0.34501
H          7.89349        0.46281       -0.49834
S          5.64324        1.43274       -0.53697
C         -4.01912       -0.85141       -0.07705
C         -3.63642       -2.26356       -0.36210
O         -2.54544       -2.75963       -0.51946
N         -4.84965       -2.95118       -0.41104
H         -4.89848       -3.94588       -0.58212
C         -5.98678       -2.16349       -0.17635
O         -7.12594       -2.55307       -0.16277
C         -5.42962       -0.80131        0.03599
C         -5.91909        0.43734        0.29286
H         -6.94595        0.75130        0.42214
S         -4.63518        1.57668        0.39651
H          1.96338       -0.97571        0.10675
H          2.91945        1.91642       -0.27970
