35
COMP43_000003.log	Energy: -860357.9636935
C          1.06268        1.02699       -0.14589
C          2.20988        0.11044        0.00371
C          2.23192       -1.02419       -0.81573
C          3.25596       -1.96180       -0.74353
C          3.25228       -3.19202       -1.61459
C          4.27969       -1.73567        0.17782
H          5.09609       -2.44935        0.25898
C          4.26269       -0.61802        1.00101
C          3.23679        0.32660        0.93887
C          3.25303        1.50709        1.87943
C         -0.27358        0.73617       -0.14471
C         -1.11162       -0.46860        0.05600
O         -0.79505       -1.61833        0.20645
N         -2.45593        0.01933       -0.02846
C         -3.61441       -0.79356        0.03763
O         -4.58151       -0.63396       -0.65608
O         -3.46768       -1.72253        0.97567
C         -4.54075       -2.66188        1.06257
C         -2.53188        1.42041       -0.30256
O         -3.53865        2.06681       -0.40092
C         -1.11809        1.85019       -0.37039
C         -0.45334        3.01750       -0.56056
H         -0.85037        4.00636       -0.74330
S          1.24760        2.73641       -0.46425
H          1.42101       -1.17342       -1.52234
H          2.49618       -3.12147       -2.40147
H          3.03156       -4.08791       -1.02316
H          4.22635       -3.34405       -2.09148
H          5.06307       -0.47604        1.72257
H          3.94671        1.32492        2.70501
H          2.26422        1.69900        2.30769
H          3.57887        2.42605        1.37918
H         -4.23194       -3.38118        1.81932
H         -4.69303       -3.15634        0.10060
H         -5.46320       -2.15823        1.36020
