36
COMP93_000011.log	Energy: -739374.9798241
C          1.23506       -0.43116       -0.03751
C          2.71164       -0.62518        0.01286
C          3.35504       -1.30263       -1.02314
C          4.72135       -1.55970       -0.95222
H          5.21469       -2.07491       -1.77075
C          5.44809       -1.16117        0.16420
H          6.51276       -1.36547        0.22367
C          4.80546       -0.50015        1.20926
C          3.44576       -0.23164        1.13390
H          2.94710        0.28863        1.94626
C          0.45112       -1.61311       -0.02676
C         -0.91826       -1.57373       -0.00924
C         -1.68866       -2.84695        0.01050
O         -1.17730       -3.94644       -0.00797
N         -3.06951       -2.69926        0.05341
H         -3.60552       -3.55939        0.06920
C         -3.81032       -1.52334        0.07594
O         -5.02231       -1.55049        0.11443
C         -3.01138       -0.26843        0.04806
C         -3.65998        0.94456        0.06299
H         -4.74395        0.96190        0.09836
C         -2.91439        2.13450        0.03210
C         -1.53876        2.09632       -0.01439
C         -0.79266        3.37888       -0.05593
O         -1.31933        4.47230       -0.03530
N          0.58210        3.24325       -0.13248
H          1.10924        4.10562       -0.20900
C          1.34893        2.08083       -0.18805
O          2.54690        2.16922       -0.34452
C          0.58860        0.79908       -0.06193
C         -0.83745        0.86153       -0.02561
C         -1.59630       -0.33121        0.00565
H          2.78730       -1.61751       -1.89460
H          5.36679       -0.19099        2.08567
H          0.94758       -2.57817       -0.01510
H         -3.40500        3.10188        0.04264
