58
COMP82_320003.log	Energy: -2220176.3630003
C          0.81567        0.50424        0.06613
C          2.28286        0.58507        0.11209
C          3.07741        1.57287        0.65664
C          2.57370        2.72770        1.32674
N          2.16454        3.66536        1.87150
C          4.47437        1.28403        0.53069
Cl         5.69433        2.32986        1.15333
C          4.73423        0.09834       -0.09633
S          3.24940       -0.67284       -0.56170
C          6.02731       -0.51016       -0.39472
S          7.09659        0.17223       -1.58292
C          8.26016       -1.05391       -1.34195
H          9.18996       -1.05873       -1.89356
C          7.86172       -1.96438       -0.39900
C          8.64607       -3.09136       -0.00773
N          9.29039       -4.00389        0.29981
C          6.57399       -1.64376        0.14173
Cl         5.81716       -2.59454        1.36259
C          0.17232       -0.71494        0.30671
C         -1.20997       -0.81578        0.25776
C         -1.97846        0.31136       -0.04095
C         -3.42334        0.56989       -0.06211
C         -3.56436        2.05392       -0.29963
O         -4.57214        2.69256       -0.47039
N         -2.25401        2.56996       -0.41640
C         -1.89902        3.89725       -0.71277
O         -0.80519        4.20846       -1.11942
O         -2.89259        4.73687       -0.46970
C         -2.60805        6.10630       -0.76881
C         -1.31212        1.53411       -0.24751
C          0.06638        1.65193       -0.21527
C         -4.50105       -0.26265        0.03057
C         -4.38533       -1.75251       -0.20749
O         -3.40942       -2.37631       -0.54118
N         -5.68525       -2.28577       -0.08193
C         -6.05908       -3.62622       -0.25719
O         -7.20887       -3.98381       -0.35951
O         -5.00843       -4.43404       -0.27222
C         -5.31677       -5.81432       -0.47852
C         -6.60250       -1.24793        0.21437
C         -7.95930       -1.36407        0.47096
C         -8.65124       -0.20782        0.82469
H         -9.71638       -0.27511        1.02401
C         -7.99974        1.01726        0.93285
C         -6.64032        1.12175        0.66495
C         -5.92314       -0.01532        0.27998
H          0.75576       -1.59512        0.55893
H         -1.68164       -1.76765        0.44190
H         -3.52398        6.64347       -0.52846
H         -2.35966        6.22279       -1.82586
H         -1.77621        6.46371       -0.15824
H          0.53899        2.60242       -0.41599
H         -4.35531       -6.32466       -0.45860
H         -5.80768       -5.95534       -1.44393
H         -5.96890       -6.18378        0.31581
H         -8.45671       -2.31950        0.39410
H         -8.55370        1.90435        1.22190
H         -6.14680        2.07782        0.73827
