39
COMP21_300300.log	Energy: -1484502.3631598
C          2.36882        0.28169       -0.05941
C          0.89654        0.22602       -0.03144
C          0.14528       -0.72946        0.59331
C          0.79475       -1.76583        1.33012
N          1.37946       -2.58052        1.91294
C         -1.28541       -0.54004        0.42724
C         -2.36118       -1.29531        0.91772
C         -2.24092       -2.53141        1.76872
C         -3.62617       -0.83027        0.56648
S         -5.10999       -1.61810        1.06987
C         -6.05494       -0.44422        0.23941
H         -7.13506       -0.50526        0.25173
C         -5.31569        0.50661       -0.39321
C         -5.96924        1.54369       -1.12642
N         -6.53726        2.36752       -1.71296
C         -3.88002        0.31930       -0.22620
C         -2.80525        1.07558       -0.71371
C         -2.92311        2.31687       -1.55738
C         -1.53958        0.60830       -0.36442
S         -0.06300        1.39793       -0.86972
C          3.10405       -0.77161       -0.69076
N          2.57299       -1.83034       -1.30314
S          3.82029       -2.72680       -1.81980
N          5.06967       -1.82186       -1.31922
C          4.53836       -0.76234       -0.70450
C          5.25878        0.30640       -0.10993
H          6.34208        0.31378       -0.12582
C          4.54467        1.31447        0.47827
C          5.24808        2.40786        1.08833
N          5.83461        3.28200        1.57121
C          3.09667        1.30216        0.51159
C          2.42266        2.37004        1.19521
N          1.88419        3.23058        1.75307
H         -1.21066       -2.82564        1.95850
H         -2.74222       -3.37763        1.28417
H         -2.72462       -2.37365        2.74006
H         -3.95346        2.60799       -1.75148
H         -2.43305        2.16790       -2.52715
H         -2.42822        3.16127       -1.06290
