35
COMP27_330000.log	Energy: -1435904.2017212
C          3.35924       -0.91770       -0.42897
C          2.02355       -0.30980       -0.40880
C          1.67237        1.00247       -0.62800
C          2.59971        2.02717       -0.98811
N          3.33883        2.85915       -1.30981
C          0.25850        1.22561       -0.53628
C         -0.32883        2.50751       -0.74572
N         -0.82441        3.54314       -0.90957
C         -0.45625        0.07788       -0.24540
S          0.62643       -1.26373       -0.08011
C         -1.87716       -0.16843       -0.06818
C         -2.84280        0.77029       -0.06663
C         -4.26500        0.51821        0.09799
C         -4.99970       -0.65287        0.15988
C         -4.44451       -1.96127        0.05708
N         -3.97790       -3.01985       -0.02515
C         -6.40747       -0.41940        0.32753
C         -7.38503       -1.45715        0.42176
N         -8.18238       -2.29392        0.49966
C         -6.71324        0.91226        0.38554
H         -7.69358        1.35089        0.50710
S         -5.31791        1.88888        0.24123
C          4.43484       -0.33843        0.32210
N          4.35686        0.72988        1.11455
S          5.84641        0.95833        1.71941
N          6.63944       -0.27891        1.02867
C          5.74590       -0.92781        0.27783
C          5.98562       -2.10137       -0.49206
H          6.97842       -2.53570       -0.51519
C          4.93571       -2.64365       -1.17369
H          5.08047       -3.54019       -1.76727
C          3.63412       -2.05579       -1.14368
H          2.84519       -2.51783       -1.73041
H         -2.14123       -1.21135        0.07624
H         -2.57845        1.81553       -0.19248
