28
COMP54_300400.log	Energy: -1567302.1126258
C          0.17402       -0.38193        0.22198
C         -1.24259       -0.09631        0.12125
C         -1.90432        1.09100        0.36341
C         -1.27740        2.28305        0.82972
N         -0.80161        3.26821        1.21387
C         -3.31156        0.97128        0.13849
S         -4.66212        2.04293        0.27929
C         -5.74538        0.78258       -0.18580
H         -6.80679        0.97679       -0.25597
C         -5.11720       -0.40882       -0.43792
C         -5.79117       -1.60200       -0.83590
N         -6.32090       -2.58163       -1.15678
C         -3.70361       -0.28979       -0.25157
S         -2.34906       -1.35382       -0.40722
C          0.77726       -1.50394        0.76275
O          0.18122       -2.55665        1.34122
N          2.13054       -1.54001        0.70902
C          2.58926       -0.46056        0.13556
S          1.40862        0.69024       -0.38073
C          4.00613       -0.20715       -0.06676
S          5.20986       -1.32983        0.46919
C          6.41131       -0.26283       -0.15247
H          7.46486       -0.49189       -0.07873
C          5.81373        0.83994       -0.70596
O          6.40783        1.89624       -1.29255
N          4.45516        0.86640       -0.65537
H         -0.76469       -2.38785        1.45162
H          7.36437        1.77602       -1.27052
