64
COMP81_100003.log	Energy: -1749339.5173416
C         -0.90879       -0.10488        0.00729
C         -2.36766       -0.26176        0.01572
C         -3.31656        0.66201        0.30952
F         -3.00488        1.91730        0.66200
C         -4.68615        0.21556        0.24860
C         -5.87570        0.91711        0.49255
C         -5.95261        2.36865        0.88513
C         -7.04540        0.17522        0.34868
S         -8.65479        0.82871        0.60009
C         -9.37525       -0.70782        0.22023
H        -10.44695       -0.84374        0.23434
C         -8.45188       -1.64195       -0.07491
F         -8.78391       -2.89877       -0.39819
C         -7.07828       -1.19383       -0.01847
C         -5.88827       -1.89365       -0.26308
C         -5.81543       -3.34380       -0.66121
C         -4.71919       -1.15307       -0.11639
S         -3.11374       -1.80287       -0.37449
C         -0.07461       -1.20186        0.25740
C          1.30603       -1.08036        0.23159
C          1.89292        0.15626       -0.04898
C          3.27599        0.63872       -0.05172
C          3.18380        2.12215       -0.32008
O          4.08362        2.90263       -0.50220
N          1.80813        2.43091       -0.43913
C          1.25475        3.69060       -0.70766
O          0.08728        3.86024       -0.97106
O          2.15813        4.65730       -0.61873
C          1.66308        5.96722       -0.90051
C          1.03893        1.25534       -0.26565
C         -0.33935        1.14942       -0.25496
C          4.47522       -0.00078        0.08638
C          4.61782       -1.49054       -0.11391
O          3.77074       -2.28167       -0.44586
N          5.98916       -1.79300        0.04638
C          6.58830       -3.05193       -0.09539
O          7.78430       -3.21305       -0.16616
O          5.69023       -4.02756       -0.11995
C          6.23258       -5.33654       -0.30004
C          6.70982       -0.60971        0.33991
C          8.06031       -0.48853        0.62886
C          8.53754        0.77336        0.97511
H          9.59342        0.89321        1.19776
C          7.68379        1.87032        1.04498
C          6.33384        1.73673        0.74455
C          5.82934        0.48961        0.36389
H         -4.97416        2.84173        0.91658
H         -6.41438        2.47325        1.87456
H         -6.57759        2.92315        0.17475
H         -6.79809       -3.80753       -0.70816
H         -5.20430       -3.90716        0.05431
H         -5.34188       -3.44734       -1.64511
H         -0.50927       -2.16979        0.48686
H          1.92071       -1.94676        0.41707
H          2.53234        6.61936       -0.83082
H          0.90511        6.25525       -0.16854
H          1.23024        6.00763       -1.90234
H         -0.95305        2.01308       -0.45381
H          5.37103       -6.00254       -0.30201
H          6.91276       -5.58677        0.51713
H          6.76959       -5.40096       -1.24901
H          8.71512       -1.34606        0.58282
H          8.07163        2.84323        1.32886
H          5.68433        2.59653        0.78714
