29
COMP21_200110.log	Energy: -1905019.4211986
C          2.39276        0.50815       -0.08791
C          0.92839        0.38634       -0.08076
C          0.17763       -0.56928       -0.68002
Cl         0.83412       -1.83644       -1.65709
C         -1.24153       -0.43278       -0.46460
C         -2.27667       -1.23587       -0.93907
H         -2.06375       -2.10141       -1.55791
C         -3.57193       -0.88709       -0.58871
S         -5.03843       -1.72556       -1.05101
C         -6.01142       -0.58087       -0.17247
H         -7.08753       -0.68317       -0.15148
C         -5.27482        0.37511        0.43151
Cl        -5.95279        1.65627        1.38177
C         -3.85255        0.24244        0.22018
C         -2.81733        1.04666        0.69235
H         -3.02951        1.91335        1.30992
C         -1.52185        0.69660        0.34266
S         -0.05862        1.53334        0.80495
C          3.23090       -0.47387        0.54031
N          2.80566       -1.55273        1.19026
S          4.13836       -2.33308        1.70394
N          5.29640       -1.34033        1.13460
C          4.66573       -0.34745        0.51067
C          5.28699        0.76295       -0.13211
H          6.36381        0.87150       -0.16072
C          4.46641        1.67710       -0.70381
F          4.95030        2.74800       -1.32827
C          3.03602        1.55286       -0.68267
F          2.35621        2.51788       -1.29315
