34
COMP57_120400.log	Energy: -2249977.9632719
C          2.21250       -0.06702       -0.44015
C          0.82103        0.34354       -0.36132
C          0.26863        1.59537       -0.44644
Cl         1.15185        3.04989       -0.71192
C         -1.14569        1.58897       -0.31816
F         -1.85108        2.71690       -0.38851
C         -1.70508        0.35176       -0.14415
S         -0.43598       -0.83672       -0.09775
C         -3.09091       -0.05405       -0.00121
C         -4.14219        0.78798       -0.00206
C         -5.52740        0.38173        0.14687
C         -6.08206       -0.86146        0.29879
F         -5.37642       -1.99119        0.33599
C         -7.49907       -0.86549        0.41742
Cl        -8.40985       -2.31726        0.61698
C         -8.02671        0.38791        0.35463
H         -9.06857        0.66579        0.41934
S         -6.79736        1.57246        0.15109
C          2.75796       -1.00853       -1.28816
O          2.12133       -1.70353       -2.24430
N          4.08436       -1.25367       -1.14229
C          4.57695       -0.51200       -0.18804
S          3.46249        0.54491        0.60588
C          5.97769       -0.54646        0.20148
S          7.10582       -1.59457       -0.59250
C          8.33363       -0.98606        0.45410
H          9.35468       -1.33461        0.39116
C          7.79885       -0.05501        1.30500
O          8.43031        0.64519        2.26776
N          6.46863        0.18980        1.15904
H         -3.26021       -1.11905        0.11904
H         -3.97269        1.85340       -0.11990
H          1.20724       -1.39418       -2.31025
H          9.36064        0.39208        2.28327
