37
COMP55_000200.log	Energy: -1638629.8744476
C         -0.41868        0.29835       -0.29507
C          0.99466       -0.10872       -0.33476
C          1.95320        0.65072        0.33564
C          3.28014        0.23347        0.27827
N          4.40616        0.80519        0.84342
C          4.47532        2.01690        1.62218
C          5.50414        0.02927        0.51814
C          6.84271        0.22205        0.86134
C          7.76199       -0.71070        0.40126
H          8.81170       -0.58598        0.64984
C          7.36583       -1.80781       -0.37846
C          6.03260       -1.99196       -0.71564
C          5.08899       -1.06715       -0.26659
C          3.65764       -0.93595       -0.42179
C          2.68501       -1.68920       -1.07753
C          1.36426       -1.27509       -1.03468
C         -1.00754        1.52534       -0.47821
Cl        -0.15247        2.98162       -0.86295
N         -2.36072        1.59086       -0.39044
C         -2.84792        0.40904       -0.13360
S         -1.67653       -0.85498        0.02417
C         -4.27074        0.15075        0.01440
S         -5.44092        1.42364       -0.14820
C         -6.67878        0.26840        0.15710
H         -7.72558        0.53224        0.17924
C         -6.11572       -0.95719        0.35169
Cl        -7.01738       -2.39303        0.68923
N         -4.76041       -1.03033        0.27236
H          1.65523        1.53285        0.89083
H          3.47967        2.45027        1.71892
H          5.12505        2.75256        1.13519
H          4.86304        1.81186        2.62619
H          7.15758        1.06794        1.46456
H          8.11192       -2.51808       -0.72023
H          5.72732       -2.84081       -1.32082
H          2.95859       -2.58777       -1.62234
H          0.60441       -1.84256       -1.56327
