34
COMP47_120000.log	Energy: -1990085.9583102
C          3.20237       -0.66943       -0.06652
C          1.77370       -0.93399       -0.02013
C          1.09973       -2.13769        0.03455
Cl         1.79383       -3.71584        0.09093
C         -0.30633       -1.99118        0.04799
F         -1.11013       -3.05364        0.10087
C         -0.74546       -0.69622        0.00179
S          0.61793        0.37301       -0.04669
C         -2.08951       -0.15095       -0.00640
C         -3.21395       -0.88882        0.07157
C         -4.56221       -0.35389        0.05313
C         -5.01422        0.93356       -0.06962
F         -4.21669        1.99230       -0.20042
C         -6.43007        1.06615       -0.04995
Cl        -7.22154        2.59295       -0.19172
C         -7.06042       -0.13247        0.08915
H         -8.12420       -0.31411        0.13539
S         -5.92908       -1.42241        0.19648
C          3.88377        0.52471       -0.00821
C          3.58091        1.97239        0.13916
O          2.51821        2.54429        0.24039
N          4.82674        2.61282        0.13717
C          4.98911        4.04518        0.26110
C          5.91004        1.73860       -0.00508
O          7.07038        2.07220       -0.03561
C          5.29235        0.39327       -0.10014
C          5.72413       -0.88236       -0.23571
H          6.73496       -1.25670       -0.32159
S          4.38166       -1.96337       -0.24805
H         -2.16187        0.92914       -0.08500
H         -3.13694       -1.96815        0.15569
H          3.99735        4.48168        0.38338
H          5.46605        4.45134       -0.63443
H          5.60958        4.27938        1.12957
