40
COMP29_000130.log	Energy: -1590213.1731037
C          2.68199        0.51504       -0.06167
C          1.22520        0.62522       -0.06771
C          0.31094       -0.40806       -0.09822
C         -1.01426        0.06150       -0.08688
C         -1.11786        1.43051       -0.04670
S          0.41080        2.19311       -0.03000
C         -2.51744        1.79608       -0.04562
C         -3.28345        0.65445       -0.06903
C         -2.39191       -0.57484       -0.08759
C         -2.64794       -1.44118       -1.32399
O         -1.85962       -1.66437       -2.20309
O         -3.90007       -1.91734       -1.28649
C         -4.25700       -2.77880       -2.36891
C         -2.49200       -1.48522        1.14223
O         -2.06101       -2.61250        1.15406
O         -3.04697       -0.87397        2.18627
C         -3.07450       -1.63832        3.39413
C         -4.67667        0.91549       -0.06952
C         -4.92852        2.25797       -0.04397
H         -5.89005        2.75249       -0.04048
S         -3.47980        3.21632       -0.01954
C          3.36487       -0.76181       -0.00435
N          2.78574       -1.95738        0.05432
S          3.97416       -3.06637        0.10554
N          5.27281       -2.08844        0.05768
C          4.80889       -0.84275       -0.00131
C          5.61817        0.32700       -0.05243
H          6.69892        0.27258       -0.05002
C          4.95574        1.50602       -0.10211
F          5.60815        2.66566       -0.15118
C          3.52696        1.59409       -0.10653
F          3.04448        2.84066       -0.15707
H          0.59118       -1.45053       -0.12957
H         -5.29203       -3.06477       -2.18607
H         -3.61020       -3.65903       -2.37906
H         -4.16536       -2.25298       -3.32195
H         -3.58603       -1.01081        4.12249
H         -2.05695       -1.86073        3.72405
H         -3.61494       -2.57499        3.24107
H         -5.44631        0.15492       -0.09087
