24
COMP53_000110.log	Energy: -982774.2375360
C          1.45053        0.21132       -0.01388
C          2.87102       -0.15782        0.00506
C          3.83137        0.73916        0.49188
C          5.17558        0.38802        0.50705
H          5.90776        1.09421        0.88666
C          5.58374       -0.86080        0.04670
H          6.63503       -1.13140        0.06281
C          4.63627       -1.75962       -0.43450
C          3.29149       -1.41060       -0.45940
H          2.56403       -2.11339       -0.85708
C          0.87082        1.44893       -0.12465
F          1.56157        2.57826       -0.23653
N         -0.47422        1.53418       -0.12921
C         -0.98575        0.33694       -0.01947
S          0.16496       -0.95130        0.10263
C         -2.41397        0.07880        0.00285
S         -3.56440        1.37315       -0.12392
C         -4.82902        0.20864       -0.01444
H         -5.87482        0.47308       -0.04372
C         -4.27596       -1.02950        0.10484
F         -4.97701       -2.14790        0.21064
N         -2.92656       -1.11720        0.11629
H          3.52256        1.70914        0.86390
H          4.94435       -2.73416       -0.80075
