29
COMP22_210300.log	Energy: -1972901.5367590
C          2.22904        0.18307       -0.05723
C          0.79003        0.04664        0.20633
C          0.19423       -0.70440        1.18097
Cl         1.02702       -1.61934        2.37671
C         -1.22410       -0.61360        1.14718
F         -1.98794       -1.23624        2.03118
C         -1.70885        0.18448        0.15091
S         -0.39587        0.83907       -0.77648
C         -3.09962        0.47409       -0.14735
S         -3.68047        2.07795       -0.48835
C         -5.29426        1.52107       -0.70081
H         -6.08858        2.20801       -0.95461
C         -5.39290        0.17840       -0.50405
Cl        -6.84787       -0.73954       -0.62175
C         -4.13562       -0.41490       -0.19217
F         -4.00065       -1.71663        0.01236
C          2.98303       -0.95190       -0.49734
N          2.48978       -2.17025       -0.72061
S          3.74095       -3.08628       -1.19438
N          4.94455       -1.99840       -1.14838
C          4.39234       -0.85080       -0.74773
C          5.06705        0.38740       -0.58169
H          6.12972        0.46496       -0.77755
C          4.33409        1.46853       -0.17475
C          4.99158        2.73378       -0.00289
N          5.54229        3.74441        0.12654
C          2.91425        1.36838        0.09534
C          2.22554        2.53803        0.56363
N          1.67796        3.48454        0.94575
