33
COMP41_000012.log	Energy: -1335218.7523325
C         -1.36760        1.07289        0.02259
C          0.01609        0.62727        0.00822
C          1.11341        1.43444       -0.04163
H          1.06052        2.51665       -0.10017
C          2.35437        0.71892       -0.02034
C          3.65445        1.23116       -0.06051
H          3.82535        2.30181       -0.11632
C          4.70517        0.32909       -0.02839
S          6.41460        0.70833       -0.06548
C          6.82101       -0.98518        0.01204
H          7.86282       -1.27726        0.01484
C          5.74397       -1.79838        0.06327
H          5.80845       -2.87892        0.11587
C          4.49568       -1.07530        0.04171
C          3.19691       -1.58417        0.07890
H          3.02466       -2.65480        0.13107
C          2.14285       -0.68197        0.04833
S          0.44172       -1.07865        0.07239
C         -2.55327        0.39314       -0.07280
C         -3.00759       -1.01343       -0.21961
O         -2.39947       -2.05233       -0.28832
N         -4.41106       -0.90285       -0.23609
O         -5.20326       -1.97323       -0.50548
C         -5.59706       -2.62644        0.70393
C         -4.92973        0.39945       -0.14234
O         -6.09609        0.69837       -0.14405
C         -3.70476        1.22995       -0.02591
C         -3.42897        2.54793        0.11033
H         -4.11175        3.38409        0.16965
S         -1.71957        2.78522        0.18817
H         -6.22401       -3.45752        0.37934
H         -6.17587       -1.94633        1.33616
H         -4.71995       -3.00506        1.23709
