34
COMP57_320200.log	Energy: -2723602.9208320
C         -1.99500       -0.03528        0.57385
C         -0.60046        0.37618        0.46484
C         -0.07772        1.63813        0.53832
Cl        -1.01990        3.05201        0.82246
C          1.34112        1.68466        0.37376
C          2.08111        2.90052        0.42208
N          2.69883        3.88165        0.45713
C          1.89537        0.43013        0.17170
S          0.66055       -0.77785        0.18118
C          3.26556       -0.00706       -0.03533
C          4.34746        0.79435       -0.07805
C          5.71743        0.35973       -0.29102
C          6.27239       -0.89198       -0.50599
C          5.53238       -2.10750       -0.56385
N          4.91475       -3.08834       -0.60785
C          7.69389       -0.83927       -0.66878
Cl         8.65376       -2.24455       -0.95342
C          8.20005        0.41961       -0.57848
H          9.23434        0.71906       -0.66701
S          6.95721        1.56863       -0.29440
C         -2.59657       -0.79434        1.54564
Cl        -1.77728       -1.41973        2.92828
N         -3.92036       -1.04699        1.39925
C         -4.36134       -0.48577        0.30669
S         -3.18695        0.38506       -0.61722
C         -5.74793       -0.56793       -0.12527
S         -6.93706       -1.42604        0.80033
C         -8.10627       -0.99849       -0.38505
H         -9.14075       -1.29938       -0.31100
C         -7.51244       -0.25629       -1.36344
Cl        -8.34305        0.37316       -2.74013
N         -6.18325       -0.01132       -1.22146
H          3.38467       -1.07811       -0.16533
H          4.22785        1.86522        0.05364
