31
COMP27_120200.log	Energy: -2482520.1786697
C         -2.90583       -0.00500       -0.16673
C         -1.49141       -0.09618        0.23244
C         -0.99679       -0.27722        1.49158
Cl        -1.96261       -0.47721        2.90427
C          0.42286       -0.27765        1.52621
F          1.09059       -0.44267        2.66754
C          1.02238       -0.09133        0.30983
S         -0.20593        0.08559       -0.90786
C          2.42549       -0.02434       -0.05673
C          3.45173       -0.18238        0.80025
C          4.85436       -0.11143        0.43231
C          5.44900        0.11360       -0.78055
F          4.77643        0.31578       -1.91314
C          6.87052        0.11705       -0.74900
Cl         7.82955        0.37987       -2.15973
C          7.36157       -0.10815        0.50047
H          8.39806       -0.15530        0.80102
S          6.09060       -0.32480        1.63866
C         -3.54995        1.27339       -0.17008
N         -2.97618        2.43228        0.15163
S         -4.12801        3.56772       -0.01246
N         -5.38387        2.65186       -0.49059
C         -4.93054        1.39801       -0.53753
C         -5.67895        0.24835       -0.90653
H         -6.72184        0.34108       -1.18382
C         -5.05228       -0.96109       -0.89523
Cl        -5.96239       -2.36815       -1.34473
C         -3.66051       -1.09438       -0.52394
Cl        -2.93358       -2.66426       -0.53576
H          2.62947        0.16903       -1.10488
H          3.24851       -0.37953        1.84801
