36
COMP71_300011.log	Energy: -1690627.3173679
C          1.27686        1.42344        0.28056
C         -0.11685        0.99522        0.18208
C         -0.71188       -0.03809        0.84570
C         -0.02987       -0.88982        1.76229
N          0.48855       -1.59133        2.52603
C         -2.11809       -0.17998        0.54656
C         -3.01202       -1.12611        1.04486
H         -2.67822       -1.88561        1.74490
C         -4.32598       -1.05218        0.60857
S         -5.64289       -2.11133        1.07151
C         -6.74732       -1.24446        0.06401
H         -7.78392       -1.54871        0.00721
C         -6.17307       -0.20471       -0.59730
C         -6.87452        0.66249       -1.48697
N         -7.41070        1.38784       -2.21560
C         -4.76081       -0.06142       -0.30556
C         -3.86735        0.88506       -0.80318
H         -4.19986        1.64367       -1.50481
C         -2.55344        0.81079       -0.36667
S         -1.23809        1.86257       -0.83615
C          2.43185        0.70826        0.06166
C          2.51693       -0.68703       -0.46166
O          1.54459       -1.34602       -0.77675
C          3.89932       -1.20323       -0.58952
C          4.20606       -2.46795       -1.00334
H          3.50913       -3.24533       -1.28467
S          5.90411       -2.72369       -1.02887
C          6.22464       -1.12605       -0.48498
H          7.23372       -0.76834       -0.33281
C          5.06815       -0.42762       -0.28858
C          4.99491        0.97460        0.17272
O          5.97483        1.65563        0.41132
C          3.60856        1.48994        0.32050
C          3.32534        2.76585        0.71185
H          4.04195        3.53742        0.95874
S          1.63991        3.04574        0.78604
