30
COMP62_300001.log	Energy: -1116164.2988361
C         -2.13787       -0.51983       -0.30926
C         -0.80817        0.04966       -0.31131
C         -0.45571        1.38093       -0.41297
C         -1.38315        2.43712       -0.66497
N         -2.10382        3.30789       -0.91989
C          0.95162        1.59021       -0.34222
H          1.40591        2.57280       -0.38409
C          1.65720        0.42647       -0.20516
S          0.59829       -0.94847       -0.16105
C          3.09897        0.25050       -0.10107
S          4.18821        1.38264       -0.84729
C          5.55999        0.52668       -0.28705
H          6.56029        0.87371       -0.50488
C          5.20187       -0.58871        0.42535
C          6.15029       -1.48926        1.00365
N          6.91394       -2.22331        1.47386
C          3.78654       -0.74640        0.53458
H          3.31704       -1.55482        1.08233
C         -3.28202       -0.05546        0.26838
C         -3.78968        0.97209        1.18438
O         -3.27824        1.92940        1.71872
N         -5.14229        0.57013        1.36455
H         -5.78196        1.09775        1.93804
C         -5.43832       -0.59199        0.68907
H         -6.41953       -1.04170        0.76088
C         -4.33344       -1.00007        0.01208
C         -3.79311       -2.10031       -0.78838
O         -4.28502       -3.09143       -1.27744
N         -2.41836       -1.74554       -0.90332
H         -1.81601       -2.21206       -1.56599
