62
COMP81_400002.log	Energy: -1576917.5532212
C          0.55782       -0.10643       -0.12371
C          2.02219       -0.18393       -0.10740
C          2.87477        0.60980        0.60084
O          2.49822        1.59951        1.45014
C          4.27817        0.29450        0.41334
C          5.41651        0.90520        0.96105
C          5.40012        2.08083        1.90231
C          6.63846        0.35595        0.57732
S          8.18635        0.95874        1.13758
C          9.02235       -0.25023        0.20203
H         10.10374       -0.29452        0.21994
C          8.18842       -1.05909       -0.49122
O          8.56856       -2.08342       -1.30125
C          6.78154       -0.74472       -0.30423
C          5.64265       -1.35480       -0.85143
C          5.65970       -2.52752       -1.79647
C          4.42132       -0.80568       -0.46789
S          2.87701       -1.40363       -1.03601
C         -0.23461       -1.26159       -0.12483
C         -1.62595       -1.20215       -0.12123
C         -2.27276        0.03515       -0.09951
C         -3.67796        0.49547       -0.13323
C         -3.59967        2.01597       -0.20122
O         -4.46882        2.86237       -0.23228
N         -2.25594        2.30396       -0.20185
O         -1.76185        3.57117       -0.12154
C         -1.73671        4.18031       -1.41682
C         -1.45162        1.17890       -0.13513
C         -0.07353        1.15064       -0.14498
C         -4.86044       -0.17736       -0.06358
C         -4.94850       -1.65780        0.28659
O         -4.08744       -2.50017        0.43044
N         -6.28864       -1.89700        0.49876
O         -6.78524       -3.16902        0.57167
C         -6.73924       -3.64137        1.91938
C         -7.08940       -0.82926        0.10858
C         -8.46699       -0.81196        0.02238
C         -9.05936        0.37182       -0.41553
H        -10.14044        0.42783       -0.50021
C         -8.27905        1.47435       -0.75352
C         -6.88841        1.43240       -0.65765
C         -6.26365        0.26631       -0.21112
H          1.54183        1.54326        1.58938
H          4.39454        2.45528        2.07803
H          6.00946        2.89796        1.49683
H          5.83746        1.80068        2.86871
H          9.53151       -2.13984       -1.29967
H          6.66671       -2.89493       -1.97949
H          5.21379       -2.24742       -2.75900
H          5.05949       -3.35074       -1.38965
H          0.24729       -2.23400       -0.10949
H         -2.20395       -2.11323       -0.11363
H         -1.27998        5.15787       -1.25795
H         -2.75308        4.29754       -1.80162
H         -1.12801        3.58763       -2.10797
H          0.48946        2.07453       -0.22815
H         -7.19309       -4.63269        1.88240
H         -7.31816       -2.98577        2.57847
H         -5.70392       -3.71466        2.26248
H         -9.04622       -1.69416        0.26925
H         -8.75528        2.38573       -1.09983
H         -6.29930        2.29752       -0.91857
