64
COMP95_000033.log	Energy: -1347133.2354136
C         -0.44811       -0.53706       -0.52587
C          0.90001       -1.14732       -0.64652
C          1.93108       -0.67741        0.16713
C          3.17082       -1.29156        0.08139
N          4.37866       -1.01683        0.76340
C          4.69223        0.08835        1.54084
O          5.76522        0.27141        2.06665
O          3.65915        0.93387        1.62542
C          3.90919        2.13333        2.35694
C          5.33746       -1.97761        0.36391
C          6.66285       -2.13595        0.76170
C          7.37803       -3.18430        0.19333
H          8.41296       -3.33067        0.48723
C          6.80094       -4.05185       -0.74071
C          5.47992       -3.88423       -1.13024
C          4.74556       -2.83914       -0.57361
C          3.37619       -2.40097       -0.75883
C          2.33823       -2.87173       -1.55753
C          1.10464       -2.24074       -1.50070
C         -1.53697       -1.42309       -0.32069
C         -2.80771       -0.96781       -0.08707
C         -3.90564       -1.94846        0.11132
O         -3.76257       -3.14895        0.02901
N         -5.15640       -1.39845        0.40507
C         -6.23133       -2.34247        0.65835
O         -6.46778       -2.78651        1.74256
O         -6.86035       -2.60266       -0.47324
C         -7.94630       -3.52953       -0.35456
C         -5.48235       -0.04193        0.50345
O         -6.61993        0.30064        0.74265
C         -4.35845        0.90823        0.30019
C         -4.58848        2.26042        0.41406
H         -5.58870        2.60839        0.64776
C         -3.52823        3.16532        0.23991
C         -2.26532        2.71066       -0.07085
C         -1.17169        3.70154       -0.21747
O         -1.29526        4.88566        0.00728
N          0.04784        3.17093       -0.64022
C          1.09432        4.11264       -0.98235
O          1.06814        4.81089       -1.95134
O          2.04692        4.05926       -0.06184
C          3.19186        4.87208       -0.34355
C          0.33210        1.82708       -0.94220
O          1.35613        1.56676       -1.53160
C         -0.69930        0.83306       -0.52331
C         -1.99986        1.32424       -0.20935
C         -3.06480        0.41988        0.00035
H          1.76138        0.14769        0.84162
H          3.02445        2.74973        2.20129
H          4.80190        2.63208        1.97327
H          4.04987        1.91376        3.41782
H          7.11257       -1.46817        1.48238
H          7.39076       -4.86043       -1.16071
H          5.02394       -4.55309       -1.85417
H          2.49216       -3.71947       -2.21783
H          0.29338       -2.58675       -2.13439
H         -1.36147       -2.49405       -0.32587
H         -8.35522       -3.62759       -1.35860
H         -8.69787       -3.13883        0.33458
H         -7.57754       -4.49036        0.01067
H         -3.68258        4.23303        0.35180
H          3.87306        4.71444        0.49128
H          2.90188        5.92228       -0.41384
H          3.65177        4.55339       -1.28122
