38
COMP61_200012.log	Energy: -1768656.6132066
C         -2.06245       -0.55335       -0.21019
C         -0.61577       -0.41541       -0.14597
C          0.31136       -1.19654        0.46816
Cl        -0.05663       -2.59428        1.41506
C          1.66326       -0.71954        0.33571
C          2.83716       -1.27667        0.84300
H          2.80829       -2.19194        1.42499
C          4.02654       -0.62087        0.57190
S          5.62756       -1.11149        1.08580
C          6.34030        0.26295        0.29211
H          7.40983        0.41757        0.32638
C          5.42774        1.04467       -0.32225
Cl         5.82733        2.48391       -1.20043
C          4.06824        0.57558       -0.18939
C          2.89579        1.13499       -0.69038
H          2.92400        2.05380       -1.26694
C          1.70352        0.47897       -0.41864
S          0.11023        0.97534       -0.92483
C         -3.02397        0.38303        0.03868
C         -3.20870        1.70655        0.63075
O         -2.46159        2.56431        1.04380
N         -4.63408        1.82465        0.59797
O         -5.30591        2.86228        1.17211
C         -5.25826        4.02072        0.33303
C         -5.26852        0.70745        0.11307
H         -6.34843        0.66704        0.08339
C         -4.31341       -0.18878       -0.24869
C         -4.12277       -1.53143       -0.77400
O         -4.86434       -2.36128       -1.24663
N         -2.70521       -1.72048       -0.60630
O         -2.03223       -2.64677       -1.36334
C         -2.27894       -3.97767       -0.89671
H         -5.82506        4.77922        0.87413
H         -5.72989        3.81593       -0.63451
H         -4.22503        4.34880        0.19632
H         -1.57231       -4.59522       -1.45275
H         -3.30557       -4.27257       -1.12059
H         -2.08155       -4.05326        0.17525
