42
COMP67_140002.log	Energy: -1411490.2975686
C         -2.49699        0.63838       -0.06289
C         -1.16612        0.14253       -0.10763
C         -0.75449       -1.14979       -0.46951
O         -1.44553       -2.19401       -0.87002
C          0.66447       -1.25676       -0.45038
F          1.25117       -2.41052       -0.77462
C          1.34283       -0.13111       -0.07753
S          0.22893        1.15643        0.25297
C          2.76450        0.10521        0.07525
C          3.72125       -0.81446       -0.16197
C          5.14358       -0.58680       -0.01089
C          5.83843        0.52565        0.37693
F          5.28233        1.70398        0.71503
C          7.25357        0.38667        0.41352
O          8.09679        1.38040        0.77332
C          7.63990       -0.86695        0.04188
H          8.64795       -1.24881       -0.02062
S          6.28265       -1.85852       -0.34632
C         -3.72937       -0.01252       -0.07758
C         -4.30953       -1.31472        0.02795
O         -3.83899       -2.46089        0.04637
N         -5.68075       -1.03637        0.15188
O         -6.64254       -2.00140        0.11589
C         -6.74826       -2.65342        1.38609
C         -5.96905        0.31202        0.12590
H         -6.98837        0.65512        0.22156
C         -4.78482        0.96205       -0.01300
C         -4.19765        2.29287        0.03368
O         -4.64093        3.41582        0.05796
N         -2.79997        1.98931        0.01952
O         -1.86410        2.97626        0.03208
C         -1.70410        3.55030       -1.27324
H         -2.38133       -2.27664       -0.50381
H          3.04667        1.10025        0.40495
H          3.43373       -1.80782       -0.49137
H          7.57238        2.16215        0.99095
H         -7.54537       -3.38640        1.25683
H         -7.01953       -1.93329        2.16575
H         -5.81021       -3.15596        1.63390
H         -0.91859        4.29671       -1.15340
H         -2.63562        4.02633       -1.58756
H         -1.39008        2.78571       -1.99116
