29
COMP21_200010.log	Energy: -1780517.0571238
C         -2.62237        0.81519       -0.48264
C         -1.17624        0.57635       -0.35618
C         -0.47492       -0.55737       -0.60266
Cl        -1.18081       -2.02395       -1.19087
C          0.94698       -0.43930       -0.38848
C          1.93623       -1.40645       -0.55438
H          1.67857       -2.40886       -0.88059
C          3.24619       -1.03878       -0.28580
S          4.66255       -2.06142       -0.41186
C          5.69384       -0.75567        0.09762
H          6.76057       -0.90637        0.18676
C          5.01091        0.38119        0.34764
Cl         5.75558        1.85589        0.87362
C          3.58639        0.26908        0.14026
C          2.59707        1.23698        0.30337
H          2.85380        2.24004        0.62878
C          1.28768        0.86848        0.03510
S         -0.12864        1.88540        0.16357
C         -3.56291        0.05953        0.29263
N         -3.26996       -0.88338        1.18827
S         -4.69010       -1.41530        1.77259
N         -5.72522       -0.47693        0.93999
C         -4.97637        0.29785        0.15153
C         -5.45540        1.29427       -0.74637
H         -6.52186        1.46223       -0.84319
C         -4.53459        2.00992       -1.45253
H         -4.86184        2.77922       -2.14450
C         -3.13058        1.77338       -1.31939
H         -2.44633        2.36616       -1.91929
