29
COMP22_310000.log	Energy: -1396132.4891703
C          2.26103       -0.80573       -0.48864
C          0.96312       -0.12742       -0.40891
C          0.68179        1.21238       -0.55999
C          1.62866        2.22537       -0.89184
N          2.37997        3.05507       -1.19063
C         -0.71219        1.46899       -0.43314
F         -1.21053        2.69768       -0.55604
C         -1.48938        0.37269       -0.19103
S         -0.47163       -1.03743       -0.10204
C         -2.92691        0.32282       -0.01756
S         -3.94077        1.73920       -0.07947
C         -5.36007        0.82465        0.20097
H         -6.32558        1.30749        0.25206
C         -5.09881       -0.51270        0.33932
C         -6.08303       -1.51743        0.57605
N         -6.88326       -2.33311        0.76726
C         -3.70409       -0.77743        0.21158
F         -3.21051       -2.01044        0.31038
C          3.39247       -0.31144        0.24196
N          3.40114        0.73456        1.06718
S          4.91996        0.86281        1.62617
N          5.61985       -0.39492        0.87301
C          4.66674       -0.97037        0.13571
C          4.81474       -2.13114       -0.67575
H          5.78112       -2.61680       -0.74732
C          3.71391       -2.59310       -1.33540
H          3.78845       -3.47668       -1.96078
C          2.44915       -1.93520       -1.24439
H          1.61770       -2.33316       -1.81895
