36
COMP61_200010.log	Energy: -1674373.5547085
C          2.36231       -0.41401        0.36505
C          0.90753       -0.32737        0.27170
C          0.03978       -1.15580       -0.36580
Cl         0.51735       -2.53639       -1.29442
C         -1.33955       -0.75066       -0.27467
C         -2.46790       -1.37095       -0.80973
H         -2.37509       -2.28755       -1.38291
C         -3.69692       -0.77470       -0.57828
S         -5.25523       -1.34892       -1.13473
C         -6.05947       -0.00691       -0.37373
H         -7.13368        0.09473       -0.44174
C         -5.20564        0.82427        0.25973
Cl        -5.70159        2.24887        1.11240
C         -3.82103        0.42352        0.17069
C         -2.69340        1.04517        0.70094
H         -2.78503        1.96571        1.26795
C         -1.46218        0.44875        0.46963
S          0.09025        1.02816        1.01951
C          3.29294        0.50391       -0.02242
C          3.45256        1.78207       -0.70934
O          2.66539        2.59376       -1.14963
N          4.87228        1.93173       -0.77258
C          5.50279        3.08510       -1.37372
C          5.51426        0.85880       -0.19575
H          6.59593        0.81523       -0.17663
C          4.59274       -0.02124        0.27485
C          4.42994       -1.32220        0.91289
O          5.21561       -2.12459        1.37189
N          3.01302       -1.50202        0.92885
C          2.40163       -2.62193        1.61285
H          4.70181        3.73116       -1.73756
H          6.13752        2.79096       -2.21527
H          6.10150        3.63433       -0.64047
H          3.17489       -3.07368        2.23652
H          2.03139       -3.36904        0.90617
H          1.57536       -2.27792        2.24070
