36
COMP47_230000.log	Energy: -1981303.7693033
C          3.27171        0.66295       -0.00607
C          1.86358        1.02795       -0.04344
C          1.29405        2.29192       -0.09217
C          2.00801        3.52529       -0.12017
N          2.57072        4.53901       -0.14356
C         -0.13183        2.25358       -0.11291
Cl        -1.08603        3.69033       -0.17061
C         -0.65244        0.98579       -0.08310
S          0.62447       -0.18669       -0.02227
C         -2.05567        0.62364       -0.09602
C         -2.51943       -0.63882       -0.11928
C         -3.91193       -1.05664       -0.12356
C         -5.09326       -0.39236        0.10624
Cl        -5.24252        1.27710        0.51540
C         -6.25210       -1.22931        0.00337
C         -7.59255       -0.77743        0.19869
N         -8.68510       -0.42467        0.35400
C         -5.93240       -2.52489       -0.30213
H         -6.61844       -3.34915       -0.43630
S         -4.24613       -2.73384       -0.46538
C          3.86206       -0.57909        0.03989
C          3.45267       -2.01036        0.06792
O          2.34717       -2.50580        0.05432
N          4.64708       -2.73440        0.11517
C          4.70717       -4.18016        0.15543
C          5.79542       -1.93107        0.11970
O          6.92833       -2.34482        0.15675
C          5.27696       -0.54185        0.07024
C          5.79918        0.70849        0.04856
H          6.83633        1.01456        0.06341
S          4.54002        1.87988       -0.01103
H         -2.74081        1.46311       -0.09242
H         -1.80496       -1.46070       -0.14804
H          3.68379       -4.55586        0.13743
H          5.20947       -4.51075        1.06768
H          5.25797       -4.55771       -0.70935
