29
COMP17_010000.log	Energy: -1306786.8402407
C         -3.37834        0.67518       -0.03892
C         -2.01909        0.21073        0.04701
C         -1.53306       -1.06395        0.21921
F         -2.31283       -2.12862        0.35029
C         -0.12700       -1.17825        0.26166
H          0.37883       -2.12237        0.41644
C          0.49228        0.03670        0.11094
S         -0.67420        1.31157       -0.07395
C          1.90770        0.36128        0.08190
C          2.88975       -0.55068       -0.02374
C          4.30950       -0.24203       -0.02074
C          4.95009        0.94465        0.23562
H          4.45924        1.87024        0.50841
C          6.35588        0.81717        0.11904
F          7.17323        1.85102        0.32794
C          6.79379       -0.42927       -0.21169
H          7.81237       -0.75918       -0.35056
S          5.45637       -1.49586       -0.39336
C         -3.84918        1.92713       -0.17695
C         -5.31430        2.03275       -0.26349
C         -5.96320        0.87055       -0.19617
H         -7.02284        0.65967       -0.22731
S         -4.80101       -0.46300       -0.00824
O         -4.79393       -1.29879       -1.20009
O         -4.94690       -1.06134        1.31075
H          2.16113        1.41744        0.14218
H          2.62905       -1.60170       -0.13133
H         -3.21714        2.80722       -0.22715
H         -5.80496        2.99306       -0.37324
