36
COMP62_020002.log	Energy: -1720837.7385525
C          1.67122        0.71806        0.02112
C          0.31459        0.25250       -0.10065
C         -0.02659       -1.03855       -0.43436
H          0.70518       -1.81616       -0.63374
C         -1.42790       -1.21645       -0.49008
Cl        -2.15153       -2.72472       -0.92416
C         -2.14854       -0.08432       -0.19668
S         -1.09216        1.23750        0.16885
C         -3.59744        0.08493       -0.15230
S         -4.42953        1.08819       -1.30201
C         -5.95550        0.75447       -0.58137
H         -6.85550        1.19620       -0.98621
C         -5.84834       -0.08668        0.48339
H         -6.68040       -0.42951        1.08479
C         -4.49608       -0.46225        0.72480
Cl        -4.04515       -1.49081        2.04068
C          2.84679        0.01204       -0.07927
C          3.35785       -1.32021       -0.32762
O          2.84562       -2.39512       -0.58529
N          4.76187       -1.11814       -0.17403
O          5.68522       -2.07054       -0.49090
C          5.78902       -3.03817        0.55849
C          5.10315        0.18921        0.07449
H          6.14209        0.46854        0.17614
C          3.95014        0.90671        0.14750
C          3.43457        2.24229        0.41236
O          3.93591        3.31422        0.66106
N          2.02530        2.03173        0.27492
O          1.11382        3.00007        0.57420
C          1.00633        3.94530       -0.49968
H          6.54746       -3.74188        0.21375
H          4.83435       -3.55097        0.69738
H          6.11108       -2.56176        1.49099
H          0.24149        4.64966       -0.17177
H          0.69001        3.44411       -1.42037
H          1.96027        4.45750       -0.64083
