44
COMP94_000002.log	Energy: -1381922.6442101
C          0.56033       -0.40220       -0.20292
C          1.98500       -0.78671       -0.14939
C          2.86529       -0.54376        0.86297
H          2.61843        0.04759        1.73582
C          4.12403       -1.15463        0.61399
S          5.63599       -1.23719        1.45685
C          6.31998       -2.20826        0.18626
H          7.34570       -2.54123        0.26833
C          5.45087       -2.46210       -0.82995
H          5.69994       -3.04766       -1.70574
C          4.18521       -1.85562       -0.57770
S          2.67448       -1.77577       -1.41904
C         -0.38259       -1.46268       -0.19851
C         -1.73094       -1.22827       -0.14736
C         -2.66516       -2.38770       -0.13390
O         -2.30372       -3.54127       -0.17392
N         -4.02037       -2.04657       -0.05613
O         -4.90714       -3.08165       -0.17484
C         -5.22840       -3.62966        1.10503
C         -4.58402       -0.76858        0.05252
O         -5.77822       -0.61376        0.16768
C         -3.60718        0.35437        0.02562
C         -4.07361        1.64627        0.10864
H         -5.14111        1.81723        0.19394
C         -3.16651        2.71847        0.08348
C         -1.81326        2.48835       -0.02800
C         -0.90239        3.66076       -0.05811
O         -1.27393        4.80637        0.06260
N          0.44227        3.33922       -0.24233
O          1.26881        4.39936       -0.50042
C          1.90471        4.85093        0.69461
C          1.03276        2.06915       -0.37695
O          2.21192        1.97867       -0.61859
C          0.09817        0.91100       -0.20248
C         -1.30032        1.16908       -0.11029
C         -2.22018        0.09617       -0.07879
H         -0.03086       -2.48941       -0.21360
H         -5.94449       -4.42338        0.89064
H         -5.69418       -2.87178        1.74180
H         -4.33586       -4.05047        1.57703
H         -3.51275        3.74417        0.15073
H          2.51999        5.69329        0.37693
H          2.54113        4.06504        1.11265
H          1.16075        5.18734        1.42286
