62
COMP91_400030.log	Energy: -1764292.7499786
C          1.41209        0.00210        0.04852
C         -0.05623        0.04645        0.15357
C         -0.94751        0.88344       -0.45385
O         -0.63008        1.95218       -1.20286
C         -2.32405        0.45936       -0.31022
C         -3.47188        1.08166       -0.80929
C         -3.45707        2.43545       -1.45139
O         -3.91007        2.67142       -2.54586
O         -2.96305        3.35780       -0.62233
C         -2.83989        4.66597       -1.17755
C         -4.68711        0.42320       -0.65126
S         -6.23779        0.99505       -1.22005
C         -7.03084       -0.36000       -0.46462
H         -8.10805       -0.44871       -0.52216
C         -6.18088       -1.21349        0.15435
O         -6.50670       -2.31220        0.87230
C         -4.79444       -0.80805        0.04237
C         -3.64408       -1.42438        0.55512
C         -3.65950       -2.81192        1.12024
O         -4.13110       -3.77334        0.57021
O         -3.00357       -2.86057        2.29103
C         -2.86216       -4.16561        2.85450
C         -2.42721       -0.76656        0.38259
S         -0.86148       -1.31033        0.94396
C          1.92934       -1.24175       -0.42388
C          3.26636       -1.46679       -0.59057
C          3.72343       -2.77806       -1.13234
O          2.93995       -3.65472       -1.43486
N          5.10367       -2.94657       -1.27004
C          5.60448       -4.21098       -1.80630
C          6.06754       -1.99575       -0.93332
O          7.24894       -2.23287       -1.08908
C          5.58340       -0.70147       -0.38122
C          6.49580        0.25836       -0.00122
H          7.55499        0.05744       -0.11733
C          6.04045        1.46719        0.54416
C          4.68880        1.71595        0.67518
C          4.26674        2.98715        1.30293
O          5.05750        3.81350        1.71172
N          2.88675        3.18791        1.40004
C          2.41361        4.45143        1.96589
C          1.91521        2.34682        0.87435
O          0.75715        2.75192        0.86281
C          2.32677        1.01311        0.37213
C          3.72839        0.76337        0.26107
C          4.20044       -0.46701       -0.24269
H         -0.07313        2.51417       -0.62367
H         -2.45393        5.28982       -0.37208
H         -3.80954        5.03469       -1.51990
H         -2.14240        4.65017       -2.01898
H         -7.45956       -2.45328        0.82408
H         -2.33806       -4.02045        3.79820
H         -2.28296       -4.80836        2.18714
H         -3.84328       -4.61516        3.02259
H          1.23837       -2.03107       -0.69900
H          4.74995       -4.85879       -1.98629
H          6.28803       -4.66854       -1.08892
H          6.14548       -4.02846       -2.73698
H          6.73931        2.22460        0.88186
H          3.26655        4.94442        2.42578
H          1.63799        4.24929        2.70502
H          1.99390        5.08331        1.17977
