27
COMP24_300400.log	Energy: -1317445.5276965
C          1.28153       -0.24062       -0.20988
C         -0.17946       -0.19989       -0.09290
C         -0.99208       -1.15130        0.48664
C         -0.51474       -2.32168        1.14571
N         -0.14829       -3.27253        1.69853
C         -2.37179       -0.79664        0.38695
S         -3.85979       -1.51403        0.90457
C         -4.75498       -0.18920        0.25363
H         -5.83330       -0.17111        0.33131
C         -3.96466        0.76391       -0.33243
C         -4.46883        1.95255       -0.94036
N         -4.86434        2.92164       -1.43844
C         -2.58051        0.40520       -0.25343
S         -1.09395        1.13351       -0.74432
C          2.10171        0.86320        0.20823
N          1.66213        2.01308        0.70538
S          2.98122        2.91870        1.02894
N          4.15280        1.88733        0.55127
C          3.53823        0.79210        0.11965
C          4.17514       -0.37704       -0.39171
H          5.25745       -0.42564       -0.45100
C          3.37714       -1.39870       -0.79354
O          3.81119       -2.57873       -1.30936
C          1.92954       -1.33800       -0.72138
O          1.24121       -2.38907       -1.18737
H          4.77538       -2.61151       -1.31833
H          1.86790       -3.09010       -1.42351
