34
COMP51_400410.log	Energy: -1642341.4512086
C          1.13220       -0.26151        0.27262
C         -0.30497       -0.06453        0.20504
C         -1.20018       -0.95531       -0.31068
O         -0.91910       -2.15249       -0.87538
C         -2.57255       -0.52576       -0.21999
C         -3.70795       -1.20623       -0.65584
H         -3.61786       -2.18304       -1.11888
C         -4.93386       -0.58271       -0.47689
S         -6.50716       -1.20445       -0.92903
C         -7.28508        0.23892       -0.31590
H         -8.36101        0.33534       -0.37981
C         -6.40934        1.13355        0.19800
O         -6.67055        2.34414        0.75030
C         -5.03482        0.69514        0.12336
C         -3.89817        1.37661        0.55571
H         -3.98708        2.35648        1.01231
C         -2.67241        0.75305        0.37846
S         -1.10150        1.38180        0.83179
C          1.78082       -1.35941        0.79883
O          1.19745       -2.43271        1.36420
N          3.13602       -1.35960        0.72591
C          3.55391       -0.25840        0.16350
S          2.32375        0.85471       -0.33375
C          4.96128        0.04347       -0.04230
S          6.20002       -1.05601        0.46583
C          7.36963        0.05652       -0.14046
H          8.42948       -0.14490       -0.07703
C          6.73801        1.15142       -0.66840
O          7.29958        2.23674       -1.23689
N          5.37875        1.13973       -0.61184
H          0.03682       -2.22563       -1.01166
H         -7.62087        2.50756        0.73065
H          0.25826       -2.23949        1.49990
H          8.25898        2.14154       -1.21946
