58
COMP81_100013.log	Energy: -1700007.9369672
C         -1.21079       -0.15350        0.11510
C         -2.66754       -0.31909        0.13443
C         -3.62110        0.47601       -0.41288
F         -3.36631        1.59374       -1.09961
C         -4.97709        0.04352       -0.23580
C         -6.14421        0.65477       -0.69084
H         -6.09950        1.58012       -1.25508
C         -7.34523        0.03128       -0.38831
S         -8.95435        0.57287       -0.82602
C         -9.67560       -0.80168       -0.02833
H        -10.74748       -0.93651       -0.01512
C         -8.74917       -1.60700        0.52609
F         -9.02693       -2.72809        1.19636
C         -7.38804       -1.17638        0.35056
C         -6.21943       -1.78807        0.80269
H         -6.26260       -2.71455        1.36531
C         -5.01935       -1.16488        0.49940
S         -3.41273       -1.69970        0.94063
C         -0.36493       -1.26228        0.24366
C          1.01409       -1.12477        0.21779
C          1.58617        0.13921        0.05359
C          2.96511        0.63105        0.08529
C          2.85903        2.13481       -0.00474
O          3.75104        2.94029       -0.08920
N          1.47959        2.44162       -0.08653
C          0.91236        3.71688       -0.21893
O         -0.26397        3.90051       -0.42798
O          1.81299        4.67879       -0.07198
C          1.29967        6.00434       -0.21485
C          0.72119        1.24728       -0.03725
C         -0.65597        1.12781       -0.01681
C          4.17000       -0.01177        0.11612
C          4.31491       -1.46208       -0.27912
O          3.46077       -2.21541       -0.67435
N          5.69446       -1.76441       -0.21369
C          6.29882       -2.98442       -0.54471
O          7.49362       -3.11974       -0.67001
O          5.40853       -3.95778       -0.68157
C          5.95860       -5.22179       -1.05611
C          6.41584       -0.62285        0.21359
C          7.77414       -0.52449        0.47297
C          8.25135        0.68398        0.97508
H          9.31298        0.78590        1.17841
C          7.39064        1.74876        1.22545
C          6.03275        1.64003        0.95186
C          5.52790        0.45148        0.41633
H         -0.78829       -2.25706        0.34324
H          1.63863       -2.00011        0.29999
H          2.16332        6.65655       -0.09508
H          0.55073        6.20982        0.55333
H          0.84986        6.13709       -1.20118
H         -1.27973        2.00376       -0.09566
H          5.10478       -5.89433       -1.12219
H          6.66831       -5.57005       -0.30246
H          6.46484       -5.14632       -2.02098
H          8.43447       -1.35868        0.28798
H          7.77876        2.67692        1.63207
H          5.37630        2.47529        1.13717
