43
COMP21_000330.log	Energy: -1605355.0701649
C          2.48684        0.10177        0.00500
C          1.02962       -0.04240       -0.02363
C          0.14079        0.95873       -0.25483
H          0.42195        1.96772       -0.50504
C         -1.22839        0.54580       -0.15464
C         -2.38840        1.33217       -0.31320
C         -2.37525        2.81313       -0.50824
O         -3.35517        3.44826       -0.83172
O         -1.19431        3.37374       -0.24470
C         -1.13314        4.79971       -0.33639
C         -3.62416        0.69386       -0.23929
S         -5.19161        1.44200       -0.44152
C         -5.97012       -0.08190       -0.14722
H         -7.05132       -0.13382       -0.17409
C         -5.12625       -1.10969        0.08587
H         -5.43569       -2.12420        0.28127
C         -3.74386       -0.69943        0.03986
C         -2.58750       -1.47656        0.24234
C         -2.72910       -2.92831        0.55329
O         -3.77034       -3.54205        0.61974
O         -1.54059       -3.51264        0.75965
C         -1.57164       -4.90893        1.05320
C         -1.33914       -0.84078        0.13364
S          0.23897       -1.57708        0.29142
C          3.35215       -0.97297       -0.40866
N          2.94715       -2.16891       -0.83567
S          4.28238       -3.01866       -1.18656
N          5.42709       -1.92554       -0.82564
C          4.78304       -0.83564       -0.40590
C          5.39453        0.37511        0.00946
H          6.47253        0.47926        0.00760
C          4.57245        1.39011        0.40856
C          5.16695        2.62577        0.83883
N          5.67582        3.60986        1.17663
C          3.12791        1.25926        0.42087
C          2.39931        2.39841        0.90252
N          1.86415        3.35155        1.28800
H         -0.12269        5.05799       -0.02366
H         -1.87234        5.25095        0.32855
H         -1.32512        5.12252       -1.36231
H         -0.52929       -5.20278        1.16835
H         -2.04191       -5.45822        0.23470
H         -2.12791       -5.09018        1.97550
