30
COMP52_420200.log	Energy: -2653695.7108924
C         -1.05026        0.81055        0.08154
C          0.39870        0.74262       -0.01446
C          1.22123        1.51625       -0.79734
O          0.87440        2.50084       -1.64017
C          2.59859        1.15813       -0.65811
Cl         3.84296        1.99835       -1.49921
C          2.81057        0.11960        0.20458
S          1.31591       -0.43557        0.88343
C          4.07775       -0.50486        0.57068
S          4.72088       -0.36852        2.17598
C          6.10711       -1.30969        1.76474
H          6.86570       -1.52068        2.50601
C          6.08379       -1.70455        0.45905
O          6.99401       -2.44819       -0.20515
C          4.91263       -1.24267       -0.22222
Cl         4.60450       -1.62988       -1.87212
C         -1.86415        1.88084        0.36744
Cl        -1.27854        3.46939        0.72673
N         -3.20266        1.66431        0.38304
C         -3.45151        0.41097        0.11976
S         -2.06504       -0.57826       -0.18910
C         -4.79644       -0.14112        0.08707
S         -6.18751        0.84482        0.40762
C         -7.17402       -0.54160        0.16138
H         -8.25011       -0.50705        0.24484
C         -6.38544       -1.61406       -0.13528
Cl        -6.98969       -3.20084       -0.45066
N         -5.04476       -1.39355       -0.17900
H         -0.07337        2.67596       -1.56897
H          7.71637       -2.67603        0.39185
