48
COMP92_040000.log	Energy: -1430568.4287039
C         -0.31046        0.15584        0.16141
C          1.14184        0.33908        0.30452
C          1.83222        1.18844        1.12366
H          1.36013        1.94463        1.73843
C          3.23003        0.98302        1.07385
O          4.14525        1.68200        1.80020
C          3.62300       -0.02878        0.22356
S          2.22383       -0.74754       -0.51745
C          4.97324       -0.45236       -0.08005
S          6.38607        0.34230        0.57167
C          7.44254       -0.72429       -0.26473
H          8.51314       -0.61722       -0.15916
C          6.77083       -1.64739       -1.00729
H          7.24964       -2.41349       -1.60793
C          5.36029       -1.48927       -0.89883
O          4.43668       -2.26200       -1.52937
C         -0.76551       -1.19272        0.23384
C         -2.09043       -1.52417        0.17721
C         -2.48735       -2.95627        0.27744
O         -1.66706       -3.84471        0.39289
N         -3.85769       -3.22551        0.22939
C         -4.30304       -4.61407        0.32349
C         -4.86254       -2.26425        0.10887
O         -6.03148       -2.59650        0.08654
C         -4.43656       -0.84320        0.00965
C         -5.38868        0.14273       -0.12126
H         -6.43694       -0.13363       -0.14697
C         -4.98702        1.48297       -0.22448
C         -3.65048        1.82264       -0.19380
C         -3.28923        3.25331       -0.32857
O         -4.12825        4.12848       -0.42968
N         -1.92720        3.53464       -0.34864
C         -1.51117        4.92240       -0.54193
C         -0.88925        2.60072       -0.22421
O          0.25389        3.00251       -0.31080
C         -1.26224        1.16915       -0.00609
C         -2.64782        0.83330       -0.04970
C         -3.06568       -0.51289        0.04710
H          3.76345        2.52671        2.06474
H          4.88252       -2.93960       -2.04947
H         -0.04342       -1.99102        0.36820
H         -3.41939       -5.24653        0.36210
H         -4.91491       -4.86205       -0.54559
H         -4.90583       -4.74915        1.22398
H         -5.71756        2.27695       -0.33382
H         -2.40917        5.53476       -0.57128
H         -0.95434        5.01673       -1.47635
H         -0.86311        5.23084        0.28023
