29
COMP11_400010.log	Energy: -1275933.4146024
C         -2.83210        0.60841       -0.23753
C         -1.40484        0.46498       -0.14979
C         -0.63698       -0.67220       -0.24799
O         -1.00588       -1.93944       -0.44058
C          0.77986       -0.40024       -0.15175
C          1.81107       -1.33547       -0.20929
H          1.58686       -2.38911       -0.33542
C          3.10931       -0.86003       -0.09957
S          4.58276       -1.80503       -0.13476
C          5.54698       -0.35897        0.06650
H          6.62539       -0.43823        0.10938
C          4.80122        0.76726        0.15499
O          5.22439        2.04595        0.31360
C          3.38136        0.51916        0.06277
C          2.34821        1.45415        0.11621
H          2.56736        2.50899        0.24138
C          1.05179        0.97667        0.00497
S         -0.41909        1.92250        0.04700
C         -3.60088        1.63528       -0.64438
C         -5.04898        1.38810       -0.55562
C         -5.39891        0.19142       -0.07655
H         -6.37304       -0.25207        0.07054
S         -3.93166       -0.69800        0.36117
O         -3.75595       -1.88520       -0.49484
O         -3.81284       -0.86097        1.80194
H         -1.97669       -2.04645       -0.53595
H          6.18749        2.06119        0.36244
H         -3.20134        2.56100       -1.04170
H         -5.76862        2.12934       -0.88428
