60
COMP81_300031.log	Energy: -1691223.3781394
C         -0.79927       -0.05378        0.12070
C          0.67028       -0.05126        0.11418
C          1.51469        1.01680       -0.04582
C          1.03036        2.31100       -0.40619
N          0.61888        3.33982       -0.74852
C          2.91689        0.64426       -0.01744
C          4.05259        1.45867       -0.10402
C          3.94674        2.94331        0.05328
O          3.26406        3.47451        0.89288
O          4.73435        3.59490       -0.80750
C          4.71583        5.02274       -0.68954
C          5.29713        0.83505       -0.18880
S          6.83713        1.64411       -0.39709
C          7.66633        0.13636       -0.35133
H          8.73807        0.10278       -0.49659
C          6.85486       -0.94281       -0.18570
C          7.38717       -2.26498       -0.29453
N          7.86628       -3.30831       -0.45383
C          5.45603       -0.56736       -0.06061
C          4.32575       -1.36970        0.15390
C          4.47335       -2.80037        0.56368
O          5.31407       -3.18917        1.33504
O          3.53354       -3.57772        0.01561
C          3.57307       -4.95451        0.40923
C          3.07360       -0.75797        0.10918
S          1.52663       -1.55615        0.27784
C         -1.51103       -1.09623       -0.48368
C         -2.90246       -1.12092       -0.48622
C         -3.61673       -0.09127        0.12706
C         -5.04790        0.25337        0.26594
C         -5.05477        1.59975        0.97861
O         -5.98266        2.29905        1.33028
N         -3.73901        1.90803        1.22579
H         -3.47128        2.77300        1.66901
C         -2.87422        0.95696        0.71186
C         -1.49497        0.99404        0.73730
C         -6.18472       -0.41205       -0.08565
C         -6.18922       -1.87348       -0.52873
O         -5.27029       -2.65908       -0.65075
N         -7.50243       -2.20378       -0.73821
H         -7.77481       -3.12880       -1.03079
C         -8.35570       -1.12987       -0.51988
C         -9.72725       -1.10489       -0.69325
C        -10.38615        0.10026       -0.45434
H        -11.46316        0.15335       -0.58181
C         -9.67516        1.23130       -0.06478
C         -8.29301        1.18807        0.11052
C         -7.60576       -0.00906       -0.10464
H          5.39756        5.38484       -1.45726
H          5.05397        5.32582        0.30384
H          3.70384        5.39637       -0.85826
H          2.75667       -5.43281       -0.12930
H          3.43053       -5.04546        1.48823
H          4.53345       -5.39407        0.13284
H         -0.97451       -1.89564       -0.98512
H         -3.42555       -1.94015       -0.95355
H         -0.97119        1.81130        1.22020
H        -10.26694       -1.99120       -1.01149
H        -10.19908        2.16528        0.10971
H         -7.75656        2.06927        0.42532
