46
COMP97_400001.log	Energy: -1429801.8467899
C          1.35178       -0.21501        0.42079
C         -0.11063       -0.23011        0.63003
C         -0.77061       -0.72648        1.71802
H         -0.26432       -1.08774        2.60772
C         -2.18528       -0.68686        1.56939
O         -3.06986       -1.10179        2.51358
C         -2.60145       -0.18918        0.35452
S         -1.21709        0.24815       -0.60616
C         -3.93586       -0.01391       -0.18824
C         -5.09346       -0.27382        0.45764
C         -6.40467       -0.14544       -0.15748
C         -6.76831       -0.40440       -1.46071
O         -5.94942       -0.85611       -2.44304
C         -8.15426       -0.19684       -1.72281
H         -8.60126       -0.35556       -2.69607
C         -8.82988        0.20661       -0.61290
H         -9.88289        0.43651       -0.52826
S         -7.80465        0.33373        0.76538
C          1.98291       -1.48195        0.34070
C          3.32458       -1.60291        0.08956
C          3.93570       -2.95784        0.01123
O          3.31908       -3.98712        0.18679
N          5.29286       -2.97467       -0.28344
H          5.72084       -3.89158       -0.34376
C          6.13971       -1.89552       -0.51019
O          7.31346       -2.06600       -0.76231
C          5.50052       -0.55506       -0.41520
C          6.26056        0.57304       -0.62045
H          7.31540        0.46219       -0.84735
C          5.66568        1.84323       -0.53194
C          4.32672        1.96895       -0.23832
C          3.73981        3.33013       -0.14377
O          4.36434        4.35259       -0.33473
N          2.39899        3.35877        0.20083
H          1.99437        4.27888        0.33208
C          1.54754        2.29563        0.48948
O          0.43256        2.51731        0.90707
C          2.12290        0.93250        0.27060
C          3.51361        0.82452       -0.02391
C          4.11876       -0.44994       -0.11879
H         -2.58727       -1.41416        3.28736
H         -3.98018        0.40754       -1.19203
H         -5.05849       -0.60754        1.49064
H         -5.12559       -1.15849       -2.03315
H          1.38796       -2.38090        0.46379
H          6.24660        2.74508       -0.69257
