46
COMP97_420001.log	Energy: -2006583.6437583
C         -1.79894        0.04264        0.23165
C         -0.39281       -0.27543        0.55645
C          0.09523       -0.89138        1.66762
Cl        -0.88140       -1.54452        2.94262
C          1.51893       -0.98710        1.70080
O          2.23363       -1.54776        2.69661
C          2.11092       -0.42382        0.59771
S          0.90185        0.23050       -0.47169
C          3.53463       -0.37535        0.34084
C          4.12440        0.11232       -0.76847
C          5.56367        0.21280       -0.95081
C          6.51574        0.50403       -0.00202
O          6.30736        0.77091        1.30336
C          7.83760        0.54492       -0.54629
Cl         9.22533        0.89381        0.42365
C          7.87726        0.29844       -1.88252
H          8.75080        0.26984       -2.51754
S          6.30357        0.01439       -2.51692
C         -2.20275        1.38900        0.39905
C         -3.49724        1.77873        0.17038
C         -3.87733        3.20450        0.37016
O         -3.09882        4.06547        0.71940
N         -5.21302        3.49678        0.12590
H         -5.48563        4.46426        0.25789
C         -6.22477        2.63217       -0.27584
O         -7.35544        3.03275       -0.45186
C         -5.81232        1.21470       -0.46604
C         -6.74603        0.28640       -0.86220
H         -7.76898        0.60692       -1.02750
C         -6.36703       -1.05498       -1.04716
C         -5.06509       -1.44738       -0.83601
C         -4.70412       -2.87221       -1.04870
O         -5.49320       -3.72806       -1.38912
N         -3.36795       -3.16849       -0.83471
H         -3.09393       -4.12970       -1.00404
C         -2.33180       -2.31983       -0.45996
O         -1.20262       -2.75129       -0.38076
C         -2.72538       -0.90020       -0.19525
C         -4.07708       -0.51409       -0.42433
C         -4.46604        0.83302       -0.23909
H          1.62991       -1.94680        3.33853
H          4.14132       -0.82142        1.12702
H          3.50550        0.47238       -1.59068
H          5.35931        0.91500        1.43913
H         -1.48037        2.12886        0.72825
H         -7.08981       -1.80110       -1.35915
