29
COMP22_000400.log	Energy: -1250287.3616905
C          1.51676        0.25840       -0.01212
C          0.11796       -0.17536        0.01649
C         -0.35315       -1.46906        0.05762
H          0.30469       -2.32552        0.07285
C         -1.76360       -1.56226        0.09445
H         -2.29929       -2.50330        0.15320
C         -2.38628       -0.34121        0.08056
S         -1.22934        0.94443        0.00387
C         -3.81213       -0.05141        0.11410
S         -4.96441       -1.18775       -0.52355
C         -6.28887       -0.16446       -0.11026
H         -7.30289       -0.47558       -0.32015
C         -5.86695        0.99457        0.46984
H         -6.54128        1.77401        0.80443
C         -4.45063        1.06038        0.59990
H         -3.92252        1.88930        1.05768
C          2.61421       -0.68558        0.02897
N          2.51416       -2.00949        0.09685
S          4.02792       -2.61490        0.11999
N          4.87955       -1.22597        0.04548
C          3.99129       -0.24022       -0.00004
C          4.31527        1.14386       -0.07072
H          5.35143        1.46389       -0.09265
C          3.27293        2.01039       -0.10801
O          3.38742        3.36594       -0.17640
C          1.89271        1.58154       -0.07972
O          0.96049        2.55464       -0.12299
H          4.31686        3.62280       -0.19701
H          1.40990        3.41198       -0.17086
