48
COMP87_210001.log	Energy: -1991614.5589457
C         -0.78375        0.57643       -0.03435
C          0.66590        0.79272       -0.06224
C          1.36454        1.96213       -0.17619
F          0.79622        3.16222       -0.28843
C          2.77776        1.82300       -0.18330
Cl         3.78437        3.22081       -0.31470
C          3.19043        0.51598       -0.07072
S          1.79534       -0.51883        0.05122
C          4.49119       -0.12774       -0.01867
C          5.68798        0.47084       -0.16963
C          6.98988       -0.17264       -0.11393
C          7.41001       -1.44387        0.20176
Cl         6.41776       -2.77477        0.67830
C          8.82391       -1.59919        0.11771
F          9.41315       -2.75806        0.38909
C          9.48453       -0.47359       -0.25400
H         10.54831       -0.34676       -0.38656
S          8.37256        0.81194       -0.51079
C         -1.33183       -0.64358       -0.44901
C         -2.70099       -0.88382       -0.40817
C         -3.56947        0.10753        0.05113
C         -5.03449        0.24351        0.17668
C         -5.25028        1.67099        0.66425
O         -6.27462        2.26349        0.93742
N         -3.99918        2.21886        0.80871
H         -3.87005        3.16516        1.13031
C         -2.99591        1.33831        0.43467
C         -1.64017        1.59310        0.41374
C         -6.05476       -0.63974       -0.02005
C         -5.83121       -2.13437       -0.22286
O         -4.80010       -2.77635       -0.26137
N         -7.07820       -2.69781       -0.31260
H         -7.20179       -3.68959       -0.44067
C         -8.08941       -1.74901       -0.23781
C         -9.45007       -1.96718       -0.35301
C        -10.29022       -0.85642       -0.28940
H        -11.36358       -0.99492       -0.37704
C         -9.76323        0.42096       -0.12469
C         -8.38933        0.62331       -0.00449
C         -7.52237       -0.47119       -0.04671
H          4.45444       -1.19821        0.15309
H          5.72432        1.53797       -0.36076
H         -0.68012       -1.42504       -0.82808
H         -3.08946       -1.83923       -0.72352
H         -1.25094        2.55011        0.73881
H         -9.84679       -2.96742       -0.49578
H        -10.42827        1.27754       -0.08524
H         -7.99531        1.61741        0.13599
