34
COMP57_030200.log	Energy: -2146824.9525624
C         -1.46006        0.32469       -0.41349
C         -0.06746       -0.09693       -0.46231
C          0.44070       -1.30738       -0.89890
C         -0.36115       -2.34728       -1.46420
N         -0.99401       -3.20120       -1.92703
C          1.85059       -1.41855       -0.75409
H          2.39995       -2.30582       -1.04285
C          2.42065       -0.29468       -0.21458
S          1.21077        0.90055        0.13105
C          3.81757       -0.00166        0.06999
C          4.84685       -0.78206       -0.29812
C          6.23912       -0.51167        0.02953
C          6.76862        0.34945        0.95460
H          6.17722        0.96069        1.62493
C          8.19552        0.33670        0.96432
C          8.99320        1.14116        1.83723
N          9.63287        1.79654        2.54762
C          8.72982       -0.54001        0.05341
H          9.77619       -0.73817       -0.13094
S          7.50483       -1.34980       -0.82151
C         -2.03994        1.50933       -0.80361
Cl        -1.18981        2.82791       -1.52378
N         -3.37687        1.62987       -0.62595
C         -3.85559        0.53956       -0.09066
S         -2.70218       -0.70487        0.23299
C         -5.26469        0.35609        0.21702
S         -6.43854        1.58508       -0.13018
C         -7.64897        0.55223        0.51964
H         -8.68969        0.83689        0.56460
C         -7.07703       -0.61350        0.93719
Cl        -7.95128       -1.91852        1.65402
N         -5.73354       -0.72848        0.76914
H          4.01579        0.92049        0.61193
H          4.65545       -1.67879       -0.88359
