40
COMP67_120002.log	Energy: -1893885.6123002
C          2.92175       -0.49406        0.11869
C          1.51767       -0.78643       -0.07182
C          0.90626       -1.89039       -0.62127
Cl         1.69105       -3.24601       -1.32522
C         -0.50331       -1.76280       -0.64243
F         -1.27792       -2.72483       -1.14235
C         -0.98716       -0.58606       -0.12759
S          0.34057        0.39946        0.38733
C         -2.34835       -0.10807        0.02491
C         -3.44698       -0.79281       -0.34764
C         -4.80987       -0.32046       -0.19374
C         -5.29816        0.84619        0.33334
F         -4.53171        1.81595        0.82971
C         -6.71576        0.95411        0.31550
Cl        -7.55002        2.33511        0.92669
C         -7.31080       -0.14201       -0.23056
H         -8.36805       -0.31660       -0.36661
S         -6.14429       -1.30448       -0.72373
C          3.61225        0.66983       -0.07939
C          3.46902        2.00049       -0.66205
O          2.53409        2.64680       -1.08255
N          4.81297        2.47982       -0.58727
O          5.20888        3.67301       -1.11321
C          4.83767        4.75329       -0.25103
C          5.69760        1.56322       -0.07364
H          6.75111        1.79863       -0.01719
C          4.99397        0.45069        0.26401
C          5.15362       -0.91234        0.75332
O          6.07029       -1.53318        1.23820
N          3.83241       -1.43822        0.57484
O          3.46156       -2.63490        1.10730
C          3.24573       -2.52241        2.51728
H         -2.45672        0.87404        0.47344
H         -3.33614       -1.77286       -0.80032
H          5.21625        5.64808       -0.74628
H          5.30771        4.63912        0.73218
H          3.75046        4.80676       -0.15464
H          2.93234       -3.51844        2.83139
H          2.45205       -1.79622        2.72797
H          4.17249       -2.24190        3.02496
