67
COMP96_000032.log	Energy: -1337730.4602434
C          0.96215        0.41474       -0.45032
C         -0.48044        0.68327       -0.70027
C         -1.43078       -0.07660       -0.01232
C         -2.77082        0.10259       -0.30378
C         -3.97649       -0.60269        0.29930
C         -3.90948       -2.10920        0.01090
O         -4.60358       -2.71250       -0.76335
O         -2.92969       -2.66801        0.73811
C         -2.72961       -4.06704        0.52501
C         -4.07303       -0.39106        1.81454
O         -3.36899        0.32750        2.47300
O         -5.08163       -1.12125        2.31462
C         -5.29333       -0.98573        3.72100
C         -5.13536        0.06485       -0.42949
C         -6.49454       -0.16460       -0.29603
C         -7.37355        0.57693       -1.08500
H         -8.44291        0.41331       -0.99368
C         -6.89396        1.52279       -1.99102
C         -5.52604        1.74525       -2.12970
C         -4.64908        1.00889       -1.34230
C         -3.18308        1.02331       -1.27029
C         -2.23982        1.76649       -1.97306
C         -0.89419        1.58823       -1.68445
C          1.36920       -0.93237       -0.63813
C          2.67211       -1.32703       -0.49382
C          3.02149       -2.75707       -0.71139
O          2.20769       -3.61730       -0.96118
N          4.38438       -3.05100       -0.59002
O          4.75293       -4.32561       -0.92442
C          4.75942       -5.17494        0.22389
C          5.42890       -2.17916       -0.25390
O          6.56722       -2.57450       -0.14435
C          5.02194       -0.76542       -0.03008
C          5.98371        0.16100        0.30196
H          7.01589       -0.15911        0.39294
C          5.61654        1.49886        0.51862
C          4.30066        1.89129        0.40612
C          3.97286        3.31610        0.66369
O          4.79990        4.16364        0.91659
N          2.61380        3.61299        0.58928
O          2.25976        4.86630        1.01037
C          2.19873        5.77433       -0.08876
C          1.54038        2.75829        0.27490
O          0.41179        3.18681        0.29824
C          1.91971        1.35236       -0.07234
C          3.28586        0.96275        0.06129
C          3.66654       -0.38100       -0.15743
H         -1.12455       -0.78523        0.74999
H         -1.90870       -4.34915        1.18289
H         -2.46900       -4.25890       -0.51819
H         -3.63580       -4.62218        0.77773
H         -6.12952       -1.64289        3.95646
H         -5.53453        0.05016        3.96999
H         -4.39870       -1.28785        4.27026
H         -6.86296       -0.90620        0.40391
H         -7.59379        2.09074       -2.59662
H         -5.15588        2.47978       -2.83899
H         -2.54480        2.47754       -2.73468
H         -0.14900        2.16302       -2.22492
H          0.62931       -1.67332       -0.92237
H          5.06268       -6.14973       -0.15922
H          3.75801       -5.24163        0.65948
H          5.48806       -4.82156        0.95928
H          6.35783        2.24559        0.78138
H          1.91296        6.72689        0.35831
H          1.43664        5.45862       -0.80756
H          3.17879        5.86709       -0.56633
