38
COMP62_140002.log	Energy: -1362923.2241916
C          1.79125       -0.71386        0.02556
C          0.36924       -0.90095       -0.07198
C         -0.37754       -2.01581       -0.36201
F          0.09024       -3.22695       -0.68881
C         -1.77247       -1.81715       -0.35757
O         -2.67640       -2.78852       -0.62806
C         -2.11802       -0.51856       -0.05948
S         -0.69735        0.45283        0.19155
C         -3.45131        0.03174        0.02307
S         -4.88999       -0.91926       -0.28035
C         -5.92554        0.42991        0.00139
H         -6.99913        0.34178       -0.07223
C         -5.20099        1.53151        0.30914
F         -5.69468        2.74909        0.58300
C         -3.79412        1.32597        0.32761
O         -2.89159        2.28775        0.61615
C          2.53125        0.44018       -0.07684
C          2.42064        1.83664       -0.47353
O          1.49673        2.57737       -0.74511
N          3.78781        2.24583       -0.43653
O          4.20378        3.48923       -0.80802
C          3.92769        4.44384        0.22144
C          4.65795        1.24287       -0.08543
H          5.72147        1.43132       -0.05078
C          3.91842        0.12734        0.14786
C          4.03455       -1.28367        0.46819
O          4.94591       -1.99636        0.81990
N          2.69018       -1.75203        0.26218
O          2.27808       -2.90137        0.88839
C          2.72361       -4.05440        0.16900
H         -2.20395       -3.61262       -0.80528
H         -3.35237        3.12916        0.73413
H          4.31992        5.38683       -0.16160
H          4.44315        4.17021        1.14897
H          2.85071        4.52250        0.38830
H          2.20886       -4.89181        0.64223
H          3.80504       -4.16541        0.26867
H          2.43809       -3.98335       -0.88352
