24
COMP54_200000.log	Energy: -1933989.7474213
C         -0.65273        0.36560        0.24339
C          0.79512        0.26937        0.14333
C          1.70543        1.26853       -0.08509
Cl         1.31866        2.92935       -0.36409
C          3.04552        0.79121       -0.10948
S          4.59941        1.51231       -0.35109
C          5.36705       -0.03566       -0.17481
H          6.44143       -0.12335       -0.25315
C          4.47961       -1.04111        0.05394
Cl         4.91089       -2.70087        0.27296
C          3.13591       -0.56965        0.09337
S          1.58508       -1.28830        0.33621
C         -1.39882        1.32203        0.88223
H         -0.98351        2.16078        1.42609
N         -2.75224        1.16785        0.82125
C         -3.06225        0.09558        0.14692
S         -1.71642       -0.80236       -0.48191
C         -4.42738       -0.34925       -0.08471
S         -5.78326        0.54601        0.53235
C         -6.82261       -0.62953       -0.17396
H         -7.89738       -0.55731       -0.08765
C         -6.08851       -1.58786       -0.80748
H         -6.49854       -2.44199       -1.33161
N         -4.73055       -1.42505       -0.75546
