60
COMP82_430003.log	Energy: -1737768.0272213
C          1.12721        0.37492       -0.26961
C          2.59068        0.41618       -0.35657
C          3.37624        1.46647       -0.76930
O          2.98290        2.68298       -1.18731
C          4.77307        1.16020       -0.75121
C          5.76208        2.11903       -1.12064
N          6.55966        2.90265       -1.42712
C          5.03499       -0.12765       -0.32176
S          3.57027       -0.95689        0.05034
C          6.32589       -0.79111       -0.19998
S          7.55634       -0.56356       -1.38800
C          8.63453       -1.63821       -0.58241
H          9.62373       -1.81842       -0.97997
C          8.07682       -2.15681        0.54963
O          8.62213       -3.02013        1.43036
C          6.74616       -1.67609        0.77612
C          5.98559       -2.06172        1.91898
N          5.37714       -2.38617        2.85105
C          0.40620       -0.76488       -0.64573
C         -0.97759       -0.79980       -0.56358
C         -1.68308        0.32540       -0.12682
C         -3.11009        0.64647       -0.01922
C         -3.16749        2.10645        0.35784
O         -4.13373        2.80045        0.54514
N         -1.82520        2.53516        0.52018
C         -1.39098        3.84250        0.78731
O         -0.24802        4.20337        0.61947
O         -2.36774        4.60592        1.24751
C         -1.99775        5.96137        1.51652
C         -0.94709        1.48187        0.18792
C          0.43721        1.51476        0.16650
C         -4.23180       -0.12587       -0.13029
C         -4.17302       -1.63414       -0.02168
O         -3.20875       -2.32565        0.18843
N         -5.50399       -2.09874       -0.09710
C         -5.93262       -3.43013        0.01021
O         -7.09256       -3.74230        0.14348
O         -4.92177       -4.28327       -0.07029
C         -5.28379       -5.65860        0.07108
C         -6.38553       -1.00265       -0.26246
C         -7.75856       -1.03901       -0.44762
C         -8.41299        0.16953       -0.67590
H         -9.48928        0.16419       -0.81899
C         -7.71033        1.36909       -0.73346
C         -6.33459        1.39315       -0.53908
C         -5.65207        0.20082       -0.27789
H          2.01658        2.73209       -1.20836
H          9.52303       -3.23482        1.16065
H          0.93353       -1.63777       -1.01790
H         -1.50307       -1.70089       -0.83670
H         -2.91236        6.43957        1.86252
H         -1.62798        6.44357        0.60920
H         -1.22541        5.99915        2.28748
H          0.96213        2.39177        0.51839
H         -4.34574       -6.20591       -0.00537
H         -5.97298       -5.95703       -0.72185
H         -5.75300       -5.83154        1.04200
H         -8.29638       -1.97470       -0.41271
H         -8.23538        2.29895       -0.92580
H         -5.80001        2.32865       -0.57486
