43
COMP66_000012.log	Energy: -765407.2468172
C         -1.30228        0.64521       -0.09870
C          0.10101        0.24566       -0.04092
C          1.15446        1.13768       -0.32077
C          2.45661        0.68215       -0.25349
C          3.74098        1.43763       -0.50831
H          3.78419        1.83651       -1.52923
H          3.85503        2.29021        0.17252
C          4.79615        0.38194       -0.26945
C          6.17717        0.48386       -0.34913
C          6.95216       -0.64359       -0.07786
H          8.03447       -0.57770       -0.13758
C          6.35223       -1.85583        0.26762
C          4.96689       -1.96283        0.34881
C          4.19391       -0.83724        0.07831
C          2.73890       -0.65057        0.08620
C          1.70338       -1.54162        0.35068
C          0.39232       -1.09302        0.28437
C         -2.44097       -0.13167       -0.14667
C         -2.88859       -1.51570       -0.21274
O         -2.33983       -2.60151       -0.15080
N         -4.30048       -1.35604       -0.31990
O         -5.15438       -2.40057       -0.51432
C         -5.39546       -3.08979        0.71565
C         -4.70804       -0.04508       -0.34646
H         -5.75446        0.19859       -0.46182
C         -3.59662        0.72533       -0.22848
C         -3.16498        2.11149       -0.18985
O         -3.73643        3.17708       -0.15672
N         -1.74382        1.96599       -0.14835
O         -0.95686        3.06953       -0.00293
C         -0.86036        3.44660        1.37359
H          0.94295        2.16287       -0.59641
H          6.65135        1.42410       -0.61726
H          6.97228       -2.72267        0.47543
H          4.50133       -2.90698        0.61704
H          1.90608       -2.57908        0.59905
H         -0.41844       -1.79209        0.46219
H         -6.10009       -3.88152        0.45819
H         -5.84133       -2.41386        1.45419
H         -4.46736       -3.52033        1.09939
H         -0.24633        4.34815        1.37568
H         -0.37073        2.65629        1.95366
H         -1.85198        3.66802        1.77660
