42
COMP77_210000.log	Energy: -2326246.9081339
C          1.64018        1.28995        0.58702
C          0.36850        0.59323        0.69034
C          0.09968       -0.56856        1.35260
F          0.99883       -1.25783        2.03202
C         -1.25907       -0.97401        1.28247
Cl        -1.81696       -2.41352        2.05103
C         -2.04990       -0.10494        0.57130
S         -1.08828        1.21168       -0.03399
C         -3.47203       -0.23078        0.32879
C         -4.23277        0.70252       -0.27111
C         -5.65648        0.62406       -0.54619
C         -6.56743       -0.40415       -0.48779
Cl        -6.24508       -2.04188       -0.05057
C         -7.88176       -0.00253       -0.86432
F         -8.89510       -0.86074       -0.87262
C         -7.98531        1.30624       -1.20720
H         -8.87109        1.83636       -1.52307
S         -6.45569        2.08093       -1.07316
C          2.88203        0.80917        0.23522
C          3.18607       -0.56835       -0.23914
O          2.32839       -1.42507       -0.37940
C          4.61081       -0.81400       -0.54719
C          5.10119       -2.02897       -0.95406
C          4.37230       -3.31666       -1.17829
S          6.81008       -1.92002       -1.20284
C          6.88253       -0.24823       -0.76823
C          8.17687        0.50283       -0.78692
C          5.62894        0.20161       -0.44148
C          5.32364        1.58237       -0.02908
O          6.15945        2.46992        0.04469
C          3.89537        1.82373        0.29713
C          3.41122        3.04194        0.67293
H          3.97755        3.95733        0.77660
S          1.72874        2.98216        0.98311
H         -3.91057       -1.15650        0.68327
H         -3.76676        1.63574       -0.58616
H          3.83343       -3.60975       -0.27305
H          5.05875       -4.11886       -1.46174
H          3.62078       -3.19690       -1.96368
H          9.01405       -0.15100       -1.04532
H          8.36637        0.95754        0.18895
H          8.13059        1.32122       -1.51120
