25
COMP44_300001.log	Energy: -1282746.5347942
C          1.30970        0.58124        0.07371
C         -0.13481        0.39800        0.02964
C         -1.11580        1.37478       -0.06936
C         -0.90794        2.77938       -0.18697
N         -0.80021        3.93042       -0.28352
C         -2.42510        0.81265       -0.05420
S         -4.02994        1.45519       -0.15001
C         -4.69398       -0.13471       -0.04169
H         -5.76589       -0.27694       -0.05735
C         -3.74505       -1.11779        0.05934
C         -4.04618       -2.50912        0.16092
N         -4.27846       -3.64148        0.24427
C         -2.42619       -0.55963        0.05378
S         -0.82925       -1.20646        0.12648
C          2.32425       -0.34227       -0.01755
C          2.47906       -1.81391       -0.19873
O          1.64521       -2.68245       -0.30004
N          3.86058       -2.01919       -0.22333
H          4.26581       -2.93880       -0.32788
C          4.63438       -0.86155       -0.06154
O          5.83776       -0.81135       -0.04274
C          3.62215        0.21893        0.07189
C          3.63335        1.56428        0.24116
H          4.47733        2.23423        0.33289
S          2.02410        2.17015        0.29043
