52
COMP97_140000.log	Energy: -1603629.3140989
C          1.36752       -0.24132        0.22905
C         -0.06196       -0.56860        0.34210
C         -0.73315       -1.41045        1.20462
O         -0.20522       -2.29202        2.06283
C         -2.14324       -1.22338        1.14317
F         -2.95560       -1.95779        1.90584
C         -2.57721       -0.27314        0.26239
S         -1.20128        0.43425       -0.52897
C         -3.91689        0.14346       -0.10385
C         -5.04801       -0.35076        0.43620
C         -6.38857        0.06797        0.07573
C         -6.82884        0.98931       -0.83272
F         -6.03396        1.73756       -1.62248
C         -8.24066        1.14142       -0.92397
O         -8.84712        2.00593       -1.76927
C         -8.88830        0.31118       -0.05916
H         -9.95425        0.21548        0.08276
S         -7.77445       -0.64238        0.85306
C          1.66790        1.14832        0.36778
C          2.93786        1.64222        0.27531
C          3.16795        3.10140        0.47490
O          2.25889        3.86535        0.72848
N          4.48732        3.54355        0.35269
C          4.77085        4.96506        0.54219
C          5.58319        2.73335        0.05188
O          6.69559        3.21239       -0.04323
C          5.32382        1.28125       -0.14204
C          6.36793        0.44069       -0.46024
H          7.36592        0.85238       -0.56208
C          6.11818       -0.92348       -0.66630
C          4.84348       -1.43577       -0.52825
C          4.63136       -2.87355       -0.80418
O          5.53019       -3.61808       -1.14020
N          3.31946       -3.33374       -0.65578
C          3.05807       -4.75667       -0.87636
C          2.25081       -2.57729       -0.19587
O          1.19615       -3.16028        0.03490
C          2.43371       -1.11710       -0.02168
C          3.75656       -0.60170       -0.17436
C          4.01509        0.77515       -0.00834
H          0.45739       -2.79322        1.54405
H         -3.98079        0.91327       -0.86651
H         -4.98196       -1.11890        1.20009
H         -8.16356        2.47361       -2.26680
H          0.86642        1.84329        0.59215
H          3.83472        5.46379        0.78079
H          5.20150        5.37990       -0.37129
H          5.49001        5.09058        1.35371
H          6.91727       -1.60098       -0.94669
H          3.96091       -5.19536       -1.29371
H          2.21993       -4.86986       -1.56490
H          2.80420       -5.24221        0.06833
