52
COMP82_120002.log	Energy: -2086669.4775909
C         -0.61462        0.47863       -0.10984
C         -2.07816        0.58423       -0.08494
C         -2.87190        1.64382       -0.42537
F         -2.41174        2.81556       -0.85896
C         -4.26795        1.40216       -0.30765
Cl        -5.43896        2.59584       -0.72205
C         -4.54860        0.13697        0.13129
S         -3.08056       -0.74244        0.41568
C         -5.84960       -0.47105        0.38935
S         -6.87197        0.10412        1.67092
C         -8.08400       -1.06930        1.33189
H         -9.00399       -1.11736        1.89548
C         -7.71155       -1.86070        0.29396
F         -8.44567       -2.85278       -0.19597
C         -6.43650       -1.52955       -0.25081
Cl        -5.76427       -2.37874       -1.59045
C          0.00656       -0.76769       -0.25813
C          1.39142       -0.90271       -0.26732
C          2.19757        0.22701       -0.12671
C          3.65137        0.49038       -0.14933
C          3.77217        2.00810       -0.16641
O          4.72828        2.73601       -0.32232
N          2.49836        2.47322        0.10006
O          2.16142        3.78022       -0.12874
C          2.41205        4.56498        1.03822
C          1.54340        1.46793       -0.00112
C          0.17624        1.63091        0.01606
C          4.72900       -0.33784       -0.05916
C          4.59701       -1.82775        0.23579
O          3.62811       -2.55943        0.24077
N          5.87275       -2.24625        0.52377
O          6.18824       -3.54401        0.79385
C          6.22383       -4.31978       -0.40936
C          6.83373       -1.27228        0.28031
C          8.20345       -1.41818        0.35959
C          8.97843       -0.30365        0.03644
H         10.06072       -0.37629        0.08580
C          8.37828        0.88978       -0.35246
C          6.98946        1.01504       -0.41681
C          6.18483       -0.07473       -0.08048
H         -0.59845       -1.65887       -0.39474
H          1.83944       -1.87612       -0.38928
H          2.05827        5.56512        0.78413
H          3.48278        4.58988        1.25744
H          1.85393        4.17332        1.89505
H         -0.25763        2.61703        0.11401
H          6.53754       -5.31476       -0.09136
H          6.95194       -3.90419       -1.11482
H          5.23039       -4.36649       -0.86277
H          8.64239       -2.36206        0.66203
H          8.99529        1.74320       -0.61422
H          6.53811        1.94578       -0.72268
