54
COMP71_000023.log	Energy: -2004476.0912903
C         -0.04458       -2.12617        0.07099
C         -1.37977       -1.54798        0.06248
C         -1.72712       -0.32586        0.53680
H         -1.02794        0.35496        1.00334
C         -3.11423       -0.02312        0.34956
C         -3.78840        1.16039        0.67056
O         -3.14710        2.21687        1.24647
C         -2.34110        2.97831        0.34541
C         -5.14962        1.21868        0.40217
S         -6.20277        2.57849        0.70859
C         -7.55695        1.70009        0.04725
H         -8.52667        2.17884        0.01027
C         -7.24781        0.45419       -0.37610
H         -7.95700       -0.22904       -0.82682
C         -5.85544        0.13721       -0.18159
C         -5.17603       -1.04071       -0.50996
O         -5.82077       -2.09587       -1.09728
C         -6.43871       -2.97196       -0.16251
C         -3.81451       -1.09904       -0.24764
S         -2.74711       -2.43156       -0.61558
C          1.17812       -1.50224       -0.07278
C          1.42741       -0.09073       -0.46040
O          0.60634        0.63890       -0.97757
C          2.82992        0.36615       -0.21769
C          3.23251        1.67921       -0.20886
C          2.39476        2.91272       -0.20708
O          1.34659        3.03611        0.37309
O          3.00742        3.89135       -0.88632
C          2.32075        5.14534       -0.90088
S          4.94051        1.81077       -0.04017
C          5.12474        0.10409        0.09172
C          6.46645       -0.45660        0.42453
O          6.66801       -1.33537        1.21997
O          7.42326        0.21002       -0.23786
C          8.76224       -0.18889        0.06722
C          3.91952       -0.54339       -0.03819
C          3.70209       -2.01908       -0.05449
O          4.59979       -2.82812       -0.16619
C          2.27809       -2.41615        0.06313
C          1.88122       -3.70279        0.27701
H          2.52249       -4.56653        0.38682
S          0.17550       -3.82585        0.36931
H         -1.87721        3.76336        0.94306
H         -2.96380        3.42519       -0.43890
H         -1.55679        2.36667       -0.11289
H         -6.88744       -3.77851       -0.74435
H         -7.21819       -2.45257        0.40878
H         -5.70088       -3.38819        0.53418
H          2.94563        5.81148       -1.49371
H          2.20202        5.52856        0.11538
H          1.33651        5.02968       -1.36003
H          9.40090        0.43852       -0.55272
H          8.90676       -1.24445       -0.17238
H          8.97397       -0.02891        1.12711
