58
COMP82_230003.log	Energy: -2220175.4692009
C          0.84591        0.50924        0.27468
C          2.31316        0.57248        0.37354
C          3.11388        1.37429        1.14265
Cl         2.53591        2.54580        2.26868
C          4.51118        1.11479        0.97943
C          5.52703        1.80200        1.70955
N          6.35477        2.36166        2.29701
C          4.75934        0.10247        0.07374
S          3.28192       -0.50182       -0.57800
C          6.04547       -0.42859       -0.35964
S          7.36896        0.61528       -0.73721
C          8.38720       -0.70357       -1.14947
H          9.40896       -0.54116       -1.46108
C          7.74369       -1.89367       -1.01278
Cl         8.46896       -3.42530       -1.33259
C          6.39312       -1.75165       -0.55948
C          5.52573       -2.85742       -0.31249
N          4.82139       -3.75691       -0.11661
C          0.19668       -0.72884        0.29182
C         -1.18498       -0.81104        0.19472
C         -1.94473        0.35498        0.08366
C         -3.37328        0.60479       -0.13972
C         -3.50004        2.09707       -0.31222
O         -4.50494        2.74941       -0.43936
N         -2.19501        2.63440       -0.18844
C         -1.83416        3.98839       -0.25694
O         -0.71079        4.38324       -0.04816
O         -2.85874        4.76041       -0.58634
C         -2.55586        6.15524       -0.66480
C         -1.26778        1.58940        0.03039
C          0.10923        1.68991        0.12838
C         -4.45555       -0.22772       -0.16359
C         -4.42049       -1.60561        0.45929
O         -3.52264       -2.11228        1.08320
N         -5.70235       -2.16823        0.27541
C         -6.13842       -3.42340        0.72498
O         -7.29243       -3.77903        0.67501
O         -5.13758       -4.15906        1.18676
C         -5.51697       -5.44506        1.68168
C         -6.53216       -1.25095       -0.41549
C         -7.83481       -1.44384       -0.84846
C         -8.43284       -0.41955       -1.57917
H         -9.45443       -0.54883       -1.92346
C         -7.74168        0.75097       -1.87751
C         -6.43847        0.93496       -1.43283
C         -5.81832       -0.06404       -0.67590
H          0.77189       -1.64190        0.41139
H         -1.66487       -1.77580        0.23362
H         -3.49990        6.63513       -0.91718
H         -1.80795        6.34060       -1.43900
H         -2.18099        6.52082        0.29361
H          0.59570        2.65220        0.07822
H         -4.59513       -5.88735        2.05570
H         -5.93986       -6.05356        0.87912
H         -6.25088       -5.34551        2.48422
H         -8.36232       -2.35850       -0.62277
H         -8.22158        1.53370       -2.45580
H         -5.91654        1.85203       -1.65522
