40
COMP49_000003.log	Energy: -1431765.8456486
C          0.89091       -1.47961       -0.00346
C         -0.45626       -0.95402       -0.00437
C         -1.62149       -1.69713        0.06269
C         -2.77520       -0.89583        0.04041
C         -2.47830        0.44818       -0.04218
S         -0.79770        0.76716       -0.09523
C         -3.71630        1.19383       -0.05644
C         -4.76831        0.31053        0.01598
C         -4.27735       -1.12715        0.08426
C         -4.75234       -1.94268       -1.12961
C         -4.70342       -1.80603        1.39601
C         -6.02957        0.96122        0.01005
C         -5.89470        2.32015       -0.06656
H         -6.67864        3.06469       -0.08801
S         -4.23715        2.82953       -0.13254
C          2.12554       -0.87571       -0.02315
C          2.65560        0.49850       -0.07062
O          2.07371        1.55011       -0.15406
N          4.07777        0.34031       -0.05088
C          5.01427        1.40038       -0.13423
O          6.04099        1.33341       -0.75311
O          4.59450        2.44009        0.57756
C          5.42326        3.60052        0.48957
C          4.48815       -1.02771       -0.02146
O          5.61906       -1.42760        0.02406
C          3.21624       -1.78213       -0.00560
C          2.86101       -3.08771        0.02889
H          3.48827       -3.96793        0.04616
S          1.13684       -3.21927        0.03574
H         -1.62931       -2.78035        0.12933
H         -4.45416       -1.45933       -2.06436
H         -5.84337       -2.04062       -1.12227
H         -4.32080       -2.94937       -1.10642
H         -4.36903       -1.22641        2.26129
H         -4.27248       -2.81090        1.46523
H         -5.79378       -1.90057        1.44252
H         -6.99046        0.46236        0.06068
H          4.90182        4.36968        1.05713
H          5.54371        3.90524       -0.55236
H          6.40558        3.39898        0.92286
