29
COMP11_300010.log	Energy: -1297279.1230475
C          2.95996        0.30268       -0.25453
C          1.51557        0.21647       -0.20140
C          0.63342        1.25965       -0.06525
C          1.02113        2.62454        0.05419
N          1.31155        3.74508        0.13443
C         -0.74840        0.84419       -0.04192
C         -1.88546        1.64209        0.08328
H         -1.79707        2.71994        0.17725
C         -3.11400        1.00107        0.08371
S         -4.68838        1.75656        0.22660
C         -5.47723        0.22187        0.12512
H         -6.55637        0.16217        0.17227
C         -4.61601       -0.82112       -0.00968
C         -5.02207       -2.18512       -0.11353
N         -5.31567       -3.30334       -0.20121
C         -3.22771       -0.40628       -0.03735
C         -2.09132       -1.20234       -0.16061
H         -2.17932       -2.28044       -0.25277
C         -0.86093       -0.56161       -0.16007
S          0.70254       -1.32553       -0.31111
C          3.75577        1.29232       -0.68739
C          5.19972        1.01171       -0.56471
C          5.49503       -0.18324       -0.05386
H          6.45588       -0.64038        0.13758
S          3.99529       -1.05750        0.34374
O          3.85778       -1.20037        1.78524
O          3.81667       -2.21571       -0.52289
H          3.39234        2.22219       -1.10821
H          5.94182        1.73507       -0.88102
