29
COMP22_410200.log	Energy: -1951554.6280389
C          1.82805        0.02526        0.12902
C          0.41254       -0.32754        0.30153
C         -0.10892       -1.47008        0.87030
O          0.54207       -2.49601        1.44915
C         -1.53032       -1.47897        0.82378
F         -2.22993       -2.48829        1.34583
C         -2.10439       -0.40807        0.20353
S         -0.86465        0.68033       -0.34018
C         -3.51415       -0.15618       -0.01072
S         -4.76325       -1.23380        0.55129
C         -6.01082       -0.22107       -0.09077
H         -7.04881       -0.50111        0.02501
C         -5.50830        0.88654       -0.70473
O         -6.16470        1.89824       -1.31778
C         -4.08424        0.90743       -0.65027
F         -3.38285        1.90516       -1.19273
C          2.75501       -0.97377       -0.33590
N          2.46190       -2.25730       -0.55609
S          3.83030       -2.97965       -1.06964
N          4.83979       -1.71210       -1.03441
C          4.13039       -0.66717       -0.60632
C          4.62757        0.64479       -0.40497
H          5.66234        0.88052       -0.61785
C          3.76101        1.57673        0.07747
Cl         4.36776        3.17864        0.35624
C          2.37353        1.27490        0.35875
Cl         1.40766        2.54311        1.03523
H          1.30209       -2.71682        0.87958
H         -7.11396        1.73693       -1.26465
