42
COMP72_320002.log	Energy: -2363248.2284148
C         -0.56142       -1.75874       -0.07059
C          0.73263       -1.18147        0.28636
C          1.06679       -0.53278        1.45303
C          0.14526       -0.31996        2.52019
N         -0.60582       -0.17132        3.38964
C          2.43188       -0.11292        1.46961
Cl         3.12474        0.73786        2.79794
C          3.12134       -0.44751        0.33668
S          2.08473       -1.28366       -0.77568
C          4.52602       -0.19667        0.02524
S          5.79573       -1.06777        0.83120
C          7.00996       -0.24708       -0.04458
H          8.05776       -0.45288        0.12414
C          6.48468        0.65720       -0.92980
C          7.28061        1.47677       -1.78588
N          7.93809        2.13446       -2.47702
C          5.05206        0.67984       -0.88357
Cl         4.10581        1.72730       -1.86913
C         -1.79212       -1.15201       -0.16172
C         -2.05594        0.31205       -0.01810
O         -1.16119        1.11952        0.16069
C         -3.47610        0.67630       -0.13091
C         -3.95223        1.94816        0.03665
O         -3.22418        3.02384        0.30374
C         -3.88347        4.25834        0.52888
S         -5.70220        2.02704       -0.14915
C         -5.76871        0.29498       -0.46098
O         -6.91140       -0.33540       -0.70443
C         -8.11963        0.40541       -0.67608
C         -4.52921       -0.28036       -0.41888
C         -4.26382       -1.70878       -0.63687
O         -5.11308       -2.53900       -0.91134
C         -2.83051       -2.08236       -0.48726
C         -2.37361       -3.35829       -0.64685
H         -2.96711       -4.22718       -0.89683
S         -0.68558       -3.46139       -0.39190
H         -3.09692        4.97605        0.75723
H         -4.57278        4.18608        1.37847
H         -4.42541        4.58197       -0.36822
H         -8.91015       -0.31236       -0.89040
H         -8.11707        1.18883       -1.44356
H         -8.28441        0.84984        0.31279
