52
COMP71_000003.log	Energy: -1910127.0209171
C         -0.29152       -1.90218       -0.25404
C         -1.64057       -1.36197       -0.15048
C         -2.14313       -0.20208       -0.64893
H         -1.52321        0.49427       -1.19153
C         -3.54190       -0.01283       -0.37747
C         -4.35143        1.07354       -0.74125
C         -3.83992        2.26522       -1.50278
C         -5.68513        0.99105       -0.35364
S         -6.90167        2.20933       -0.68439
C         -8.11078        1.26649        0.13849
H         -9.12208        1.64484        0.20771
C         -7.64033        0.10207        0.63452
H         -8.26383       -0.59739        1.17772
C         -6.23445       -0.10014        0.37022
C         -5.42281       -1.18395        0.73672
C         -5.92385       -2.37239        1.51111
C         -4.09077       -1.10261        0.34518
S         -2.87175       -2.30752        0.69300
C          0.95619       -1.29940       -0.30016
C          1.26363        0.14645       -0.31744
O          0.47076        1.01748       -0.62200
C          2.69238        0.48804       -0.02791
C          3.15845        1.75160        0.24462
C          2.39094        2.97798        0.60314
O          1.38048        2.99577        1.25528
O          3.02821        4.07009        0.15443
C          2.42091        5.31526        0.50579
S          4.87893        1.79328        0.28227
C          4.99523        0.11327       -0.06281
C          6.34302       -0.49147       -0.27892
O          6.62792       -1.23878       -1.17629
O          7.21060       -0.02069        0.62919
C          8.55765       -0.47374        0.47274
C          3.75194       -0.46273       -0.17891
C          3.46832       -1.91990       -0.28485
O          4.33259       -2.77312       -0.25801
C          2.02615       -2.26119       -0.31820
C          1.59196       -3.55202       -0.30791
H          2.21079       -4.43872       -0.31750
S         -0.11392       -3.63816       -0.26652
H         -2.75640        2.24106       -1.62969
H         -4.09117        3.19456       -0.97826
H         -4.29795        2.31772       -2.49789
H         -7.00190       -2.33375        1.67714
H         -5.43657       -2.43317        2.49180
H         -5.70294       -3.30540        0.97891
H          3.08490        6.08367        0.11237
H          2.32649        5.40328        1.59060
H          1.43031        5.39298        0.05219
H          9.12091        0.01100        1.26890
H          8.94635       -0.18588       -0.50692
H          8.60525       -1.56026        0.57296
