55
COMP99_000020.log	Energy: -1503783.3438845
C          0.74389       -0.01589        0.03236
C         -0.72894        0.02201       -0.02670
C         -1.58357       -0.77108        0.70119
C         -2.93040       -0.60197        0.30996
C         -3.07866        0.31071       -0.70212
S         -1.58689        0.97115       -1.21482
C         -4.49176        0.48043       -0.99438
C         -5.22750       -0.32756       -0.16745
C         -4.29968       -1.11662        0.76235
O         -4.54684       -2.47263        0.50556
C         -3.63554       -3.37415        1.10348
O         -4.40707       -0.81691        2.12535
C         -5.68804       -1.02200        2.68969
C         -6.61753       -0.27842       -0.44268
C         -6.89719        0.59302       -1.45941
H         -7.86414        0.84420       -1.87287
S         -5.47189        1.34186       -2.10600
C          1.32962       -1.30085       -0.12614
C          2.68752       -1.48162       -0.15852
C          3.24048       -2.85349       -0.32738
O          2.52284       -3.83160       -0.39640
N          4.63203       -2.95847       -0.40171
C          5.22494       -4.28292       -0.57526
C          5.52673       -1.88805       -0.33464
O          6.72338       -2.08053       -0.42196
C          4.94817       -0.53100       -0.15004
C          5.78246        0.56119       -0.06697
H          6.85419        0.41298       -0.14120
C          5.23752        1.84444        0.10938
C          3.87405        2.02149        0.20464
C          3.34485        3.39584        0.39589
O          4.07203        4.36994        0.42529
N          1.96628        3.50211        0.55991
C          1.39810        4.81876        0.84366
C          1.05899        2.43594        0.55786
O         -0.09766        2.64479        0.85999
C          1.58388        1.08493        0.19644
C          2.99291        0.91710        0.11678
C          3.54892       -0.36780       -0.06471
H         -1.24168       -1.42359        1.49609
H         -4.07275       -4.36827        0.99521
H         -3.49066       -3.15334        2.16727
H         -2.66499       -3.35341        0.59135
H         -6.08373       -2.01251        2.43742
H         -6.39491       -0.25129        2.35744
H         -5.56102       -0.94520        3.77086
H         -7.37558       -0.85684        0.07076
H          0.68376       -2.16391       -0.24690
H          4.41873       -5.01252       -0.57151
H          5.92532       -4.48151        0.23795
H          5.76918       -4.32348       -1.52106
H          5.87807        2.71735        0.17236
H          2.19814        5.55052        0.76126
H          0.97081        4.83245        1.84837
H          0.60466        5.03569        0.12646
