30
COMP42_220000.log	Energy: -2393806.0744024
C          2.41113        0.74820        0.31832
C          0.99102        0.72787       -0.01040
C          0.21844        1.69500       -0.60572
Cl         0.81565        3.20886       -1.17577
C         -1.14704        1.31012       -0.75055
Cl        -2.33168        2.30214       -1.50753
C         -1.40535        0.06068       -0.25225
S          0.03020       -0.65418        0.38987
C         -2.67956       -0.65103       -0.22610
S         -2.94774       -2.06612       -1.19442
C         -4.55170       -2.24230       -0.60803
H         -5.18395       -3.05193       -0.94318
C         -4.87249       -1.26229        0.27997
Cl        -6.40732       -1.13948        1.05862
C         -3.79656       -0.34762        0.50557
Cl        -3.89395        0.97442        1.60321
C          3.34542       -0.24141        0.18594
C          3.42463       -1.61624       -0.38026
O          2.56789       -2.30116       -0.88837
N          4.76196       -1.99848       -0.20406
C          5.28599       -3.28149       -0.62045
C          5.55533       -1.02473        0.41772
O          6.73046       -1.14718        0.66658
C          4.63022        0.11016        0.66656
C          4.70152        1.36207        1.18431
H          5.55510        1.87983        1.59990
S          3.16138        2.13252        1.08340
H          4.45695       -3.85779       -1.03232
H          5.71853       -3.80550        0.23515
H          6.05916       -3.14690       -1.38118
