31
COMP22_410300.log	Energy: -1490492.2803671
C          1.96969        0.11908        0.09336
C          0.55202       -0.19362        0.23809
C         -0.04850       -1.28063        0.85530
O          0.51333       -2.31848        1.48750
C         -1.46878       -1.18595        0.83157
F         -2.22152       -2.10477        1.42182
C         -1.96328       -0.09689        0.17672
S         -0.66541        0.87203       -0.43339
C         -3.35334        0.25125       -0.04333
S         -3.93585        1.88720        0.05798
C         -5.54858        1.39794       -0.32886
H         -6.33799        2.13423       -0.39083
C         -5.64492        0.05034       -0.51195
O         -6.73145       -0.69254       -0.82053
C         -4.38041       -0.59349       -0.34984
F         -4.24450       -1.90297       -0.51852
C          2.93746       -0.91999       -0.16512
N          2.67454       -2.22675       -0.21290
S          4.07169       -2.99179       -0.54828
N          5.06141       -1.71606       -0.65201
C          4.32194       -0.63087       -0.41704
C          4.80034        0.70370       -0.40243
H          5.84187        0.92068       -0.60320
C          3.89542        1.68476       -0.11453
C          4.35687        3.04563       -0.07154
N          4.76515        4.12913       -0.04936
C          2.49718        1.40411        0.14814
C          1.69707        2.53708        0.51615
N          1.11979        3.48980        0.83608
H          1.34098       -2.54846        1.02452
H         -7.50001       -0.11507       -0.89767
