52
COMP84_200003.log	Energy: -2055896.9441669
C          1.83764       -0.15296        0.01216
C          3.29789       -0.33266        0.01762
C          4.25074        0.27164        0.79360
Cl         3.94241        1.42182        2.04785
C          5.56725       -0.18618        0.50225
S          7.14863        0.15838        1.11457
C          7.84823       -0.98366        0.00786
H          8.91648       -1.14747       -0.00339
C          6.91907       -1.59002       -0.77889
Cl         7.27863       -2.77776       -1.98441
C          5.59838       -1.13564       -0.49695
S          4.01788       -1.47798       -1.10160
C          0.99211       -1.26604       -0.05346
C         -0.38702       -1.11948       -0.06611
C         -0.95204        0.15628       -0.00278
C         -2.32800        0.65155       -0.10559
C         -2.21529        2.15686       -0.11719
O         -3.10454        2.96987       -0.10678
N         -0.83643        2.46252       -0.02461
C         -0.26501        3.74110        0.05115
O          0.90448        3.92995        0.29049
O         -1.15329        4.69611       -0.18553
C         -0.63697        6.02591       -0.10194
C         -0.08414        1.26536        0.02772
C          1.29346        1.13659        0.03790
C         -3.53389        0.01132       -0.13453
C         -3.69974       -1.40867        0.35363
O         -2.86337       -2.12926        0.83686
N         -5.07432       -1.72055        0.23904
C         -5.69271       -2.92443        0.60336
O         -6.88933       -3.09264        0.56590
O         -4.81248       -3.84265        0.97807
C         -5.38246       -5.09202        1.37197
C         -5.77163       -0.61332       -0.30597
C         -7.11466       -0.53412       -0.64116
C         -7.56602        0.64302       -1.23385
H         -8.61588        0.72871       -1.49714
C         -6.69550        1.69617       -1.49771
C         -5.35332        1.60755       -1.14990
C         -4.87565        0.45146       -0.52575
H          1.41758       -2.26452       -0.06975
H         -1.01622       -1.99462       -0.09799
H         -1.49276        6.67373       -0.28510
H          0.13590        6.18371       -0.85768
H         -0.21618        6.21161        0.88849
H          1.92763        2.00999        0.05126
H         -4.53709       -5.70082        1.68891
H         -5.89917       -5.55820        0.52987
H         -6.08732       -4.95074        2.19402
H         -7.78294       -1.35949       -0.44767
H         -7.06372        2.59992       -1.97207
H         -4.68912        2.43445       -1.34549
