32
COMP42_030000.log	Energy: -1355975.0326871
C         -1.64507       -0.72677       -0.15804
C         -0.31535       -0.14576       -0.08929
C          0.00539        1.16629        0.14266
H         -0.73678        1.94093        0.30018
C          1.40996        1.38542        0.16289
C          1.97918        2.67252        0.41328
N          2.42423        3.72393        0.61428
C          2.15524        0.23813       -0.05198
S          1.11099       -1.11534       -0.29436
C          3.60259        0.08883       -0.11446
S          4.59809        1.28690       -0.86606
C          6.03090        0.39509       -0.54811
H          6.99071        0.79019       -0.85069
C          5.77631       -0.77383        0.09951
H          6.53281       -1.48547        0.40391
C          4.38312       -0.95690        0.34963
C          3.87516       -2.10048        1.03933
N          3.48842       -3.04082        1.59690
C         -2.87300       -0.12544       -0.05601
C         -3.43002        1.23632        0.15050
O         -2.86895        2.30013        0.30366
N         -4.81885        1.06783        0.13768
C         -5.75872        2.15354        0.32124
C         -5.22783       -0.25987       -0.05004
O         -6.37576       -0.63033       -0.09115
C         -3.96225       -1.02596       -0.17567
C         -3.60122       -2.31729       -0.36835
H         -4.22423       -3.19272       -0.48753
S         -1.87896       -2.44489       -0.40269
H         -5.19761        3.08807        0.29766
H         -6.27183        2.05586        1.28165
H         -6.50036        2.13845       -0.48005
