40
COMP61_400021.log	Energy: -1286330.6181283
C          2.78904        0.60751        0.00115
C          1.38294        0.42127        0.11038
C          0.65237       -0.74357       -0.10030
O          1.08425       -1.95156       -0.38674
C         -0.77927       -0.50840       -0.05334
C         -1.83164       -1.41739       -0.24033
O         -1.66650       -2.73551       -0.52120
C         -1.32085       -3.55272        0.59449
C         -3.12789       -0.91619       -0.17224
S         -4.56314       -1.88841       -0.37424
C         -5.56225       -0.48496       -0.10021
H         -6.64011       -0.58294       -0.12265
C         -4.85636        0.65077        0.12164
O         -5.35520        1.88995        0.36000
C         -3.42478        0.44242        0.08251
C         -2.37142        1.34853        0.27153
O         -2.54919        2.66900        0.55746
C         -2.86021        3.48134       -0.57071
C         -1.07936        0.84976        0.19357
S          0.34737        1.82561        0.41930
C          3.84931       -0.28754       -0.01394
C          4.16481       -1.67025        0.17635
O          3.45344       -2.67280        0.34997
N          5.56086       -1.70064        0.12871
H          6.08014       -2.55988        0.21969
C          6.10609       -0.43683       -0.04830
H          7.17606       -0.29046       -0.07613
C          5.07765        0.44177       -0.14306
C          4.75633        1.86867       -0.23499
O          5.42747        2.86276       -0.38353
N          3.33959        1.87397       -0.10893
H          2.80975        2.72071       -0.25765
H          2.02328       -2.18246       -0.09304
H         -1.28056       -4.57399        0.21458
H         -2.08717       -3.47874        1.37535
H         -0.34243       -3.27452        0.99453
H         -6.31889        1.84410        0.36286
H         -2.90449        4.50634       -0.20023
H         -3.82995        3.20449       -0.99483
H         -2.07762        3.39905       -1.33474
