26
COMP32_120000.log	Energy: -1788413.6565063
C         -2.55132        0.12253       -0.08028
C         -1.13098       -0.21971        0.05292
C         -0.60603       -1.27338        0.74249
F         -1.33229       -2.13326        1.44238
C          0.81073       -1.36931        0.67339
Cl         1.68540       -2.60458        1.49382
C          1.36744       -0.37006       -0.07809
S          0.14079        0.68101       -0.70605
C          2.77720       -0.13902       -0.37938
S          3.66496       -1.22035       -1.40793
C          5.10511       -0.28956       -1.26672
H          6.02126       -0.58080       -1.75885
C          4.90357        0.79444       -0.47500
F          5.83464        1.69374       -0.18016
C          3.57630        0.89205        0.03598
Cl         3.08681        2.17085        1.08047
C         -3.02598        1.41593        0.14905
F         -2.17765        2.38520        0.49410
C         -4.37514        1.71908        0.02633
F         -4.78009        2.96780        0.25744
C         -5.29331        0.74280       -0.32219
H         -6.34600        0.97992       -0.41482
C         -4.83565       -0.54340       -0.55366
F         -5.69074       -1.50527       -0.89951
C         -3.48589       -0.85114       -0.44256
F         -3.08844       -2.09530       -0.69862
