36
COMP71_400011.log	Energy: -1669281.1648218
C         -1.10676        1.19877       -0.17144
C          0.25896        0.75210        0.01437
C          0.90277       -0.35274       -0.49260
O          0.36853       -1.36430       -1.17493
C          2.33312       -0.32458       -0.28507
C          3.24895       -1.29552       -0.68507
H          2.90673       -2.18310       -1.20625
C          4.58479       -1.07271       -0.38753
S          5.93806       -2.11517       -0.77293
C          7.05059       -0.99562       -0.01744
H          8.10855       -1.22249       -0.00012
C          6.43717        0.09741        0.49370
O          6.99686        1.15077        1.13903
C          5.00566        0.09018        0.30115
C          4.08699        1.05791        0.70622
H          4.42066        1.94460        1.23446
C          2.75378        0.83684        0.39719
S          1.39940        1.86600        0.79827
C         -2.34223        0.55647       -0.15608
C         -2.60521       -0.85125        0.15605
O         -1.73266       -1.70992        0.30650
C         -4.02942       -1.21945        0.29122
C         -4.46622       -2.46918        0.63114
H         -3.85598       -3.33103        0.86371
S         -6.18099       -2.54725        0.65424
C         -6.33289       -0.89711        0.19705
H         -7.29923       -0.42988        0.06618
C         -5.11020       -0.31295        0.03893
C         -4.87421        1.09484       -0.34058
O         -5.77203        1.88396       -0.57304
C         -3.43967        1.47213       -0.38005
C         -3.03793        2.75688       -0.56273
H         -3.67878        3.61183       -0.73017
S         -1.33486        2.90606       -0.47626
H         -0.49291       -1.58692       -0.74360
H          7.95145        1.02404        1.19145
