42
COMP51_200230.log	Energy: -2893042.8643043
C          1.82912       -0.41391        0.47461
C          0.39179       -0.26831        0.26132
C         -0.34235        0.87259        0.32583
Cl         0.35986        2.37408        0.81382
C         -1.75374        0.67452        0.07192
C         -2.80376        1.59987        0.02048
C         -2.57801        3.08133       -0.05698
O         -1.90147        3.61456       -0.89873
O         -3.28310        3.73251        0.87503
C         -3.19737        5.15982        0.81743
C         -4.09926        1.10543       -0.11287
S         -5.55663        2.07606       -0.10367
C         -6.52825        0.66452       -0.34732
H         -7.60625        0.74586       -0.37199
C         -5.81282       -0.47786       -0.42846
Cl        -6.59200       -2.02144       -0.51305
C         -4.38086       -0.26992       -0.32788
C         -3.31751       -1.17866       -0.39759
C         -3.48357       -2.58405       -0.89347
O         -4.01054       -2.87535       -1.93640
O         -2.90204       -3.46231       -0.06686
C         -2.92027       -4.82324       -0.50781
C         -2.03359       -0.70081       -0.13344
S         -0.58468       -1.67544       -0.07966
C          2.49247       -1.03179        1.50382
Cl         1.71015       -1.76954        2.85278
N          3.84738       -1.03729        1.44915
C          4.24962       -0.42211        0.37058
S          2.99920        0.20185       -0.64835
C          5.65439       -0.25727        0.03070
S          6.91062       -0.88238        1.05135
C          8.06462       -0.26247       -0.06164
H          9.12832       -0.37522        0.08608
C          7.41773        0.35368       -1.09212
Cl         8.21784        1.11119       -2.42252
N          6.05938        0.35900       -1.04485
H         -3.84294        5.52138        1.61621
H         -3.54115        5.52382       -0.15339
H         -2.16572        5.48031        0.97807
H         -2.38868       -5.38364        0.25965
H         -2.41951       -4.91767       -1.47391
H         -3.95029       -5.17446       -0.60043
