62
COMP87_030003.log	Energy: -1691955.9404181
C         -0.66677        0.53283       -0.15703
C         -2.12637        0.66024       -0.26563
C         -2.87466        1.70175       -0.78113
C         -2.31102        2.88326       -1.35564
N         -1.87735        3.84729       -1.83203
C         -4.28091        1.47556       -0.72759
H         -5.00746        2.20223       -1.06994
C         -4.60651        0.26207       -0.18440
S         -3.17130       -0.59797        0.28644
C         -5.91550       -0.33926        0.02340
C         -7.03612        0.05931       -0.60042
C         -8.35499       -0.50161       -0.34152
C         -8.79945       -1.21535        0.73965
H         -8.19595       -1.43466        1.61176
C        -10.16440       -1.61391        0.61304
C        -10.86938       -2.36526        1.60500
N        -11.43341       -2.97576        2.41288
C        -10.74071       -1.18700       -0.55665
H        -11.75746       -1.34986       -0.88512
S         -9.62885       -0.30589       -1.51207
C         -0.04183       -0.69329       -0.41334
C          1.33407       -0.83263       -0.31221
C          2.11876        0.26320        0.05502
C          3.56699        0.48568        0.13748
C          3.73107        1.95015        0.46684
O          4.74449        2.54762        0.72961
N          2.43100        2.49658        0.54174
C          2.09752        3.81834        0.88237
O          0.99429        4.14498        1.24918
O          3.12533        4.63843        0.72675
C          2.86328        6.00058        1.07397
C          1.47280        1.49297        0.28555
C          0.10063        1.64763        0.20033
C          4.63201       -0.35918        0.01216
C          4.48651       -1.85849        0.13851
O          3.49784       -2.48664        0.42389
N          5.77661       -2.40759       -0.02358
C          6.12136       -3.76471        0.04736
O          7.26236       -4.15490        0.12824
O          5.05394       -4.54921       -0.00812
C          5.33255       -5.94697        0.09460
C          6.71702       -1.36837       -0.22964
C          8.07366       -1.49128       -0.48536
C          8.79194       -0.32498       -0.73920
H          9.85724       -0.39798       -0.93572
C          8.16606        0.91793       -0.75040
C          6.80667        1.02827       -0.48489
C          6.06268       -0.12107       -0.20070
H         -5.96343       -1.16878        0.72605
H         -6.97813        0.83918       -1.35683
H         -0.63638       -1.54906       -0.71809
H          1.78960       -1.78987       -0.50877
H          3.80665        6.51933        0.91196
H          2.55638        6.07679        2.11930
H          2.07897        6.41113        0.43449
H         -0.35710        2.60090        0.42062
H          4.36096       -6.43449        0.03355
H          5.81646       -6.17010        1.04793
H          5.98018       -6.26987       -0.72345
H          8.55215       -2.45930       -0.48361
H          8.73999        1.81445       -0.96084
H          6.33394        1.99759       -0.47991
