54
COMP91_000013.log	Energy: -1620586.7041675
C          0.00176       -0.16678        0.14111
C          1.44837       -0.48182        0.18515
C          2.18322       -0.99153       -0.82890
H          1.78926       -1.14723       -1.82701
C          3.54256       -1.28453       -0.45230
C          4.56995       -1.80059       -1.24263
H          4.39949       -2.02611       -2.29083
C          5.80509       -2.01127       -0.64730
S          7.24437       -2.64587       -1.41664
C          8.13476       -2.51703        0.07669
H          9.17290       -2.82090        0.10050
C          7.40327       -2.02621        1.10031
H          7.79361       -1.87676        2.10028
C          6.04511       -1.72031        0.72114
C          5.01639       -1.20236        1.51077
H          5.18657       -0.97476        2.55850
C          3.78251       -0.99062        0.91471
S          2.34387       -0.36129        1.68754
C         -0.87802       -1.27754        0.14246
C         -2.23921       -1.11431        0.11464
C         -3.11631       -2.31410        0.11262
O         -2.70231       -3.45254        0.10892
N         -4.48955       -2.05488        0.11419
C         -5.36621       -3.21324        0.16187
O         -5.74411       -3.70438        1.18359
O         -5.64896       -3.59567       -1.06987
C         -6.51426       -4.73390       -1.16128
C         -5.11393       -0.80480        0.07083
O         -6.32238       -0.72088        0.03836
C         -4.20503        0.37065        0.06820
C         -4.74168        1.63705        0.03948
H         -5.81986        1.75343        0.02262
C         -3.89213        2.75694        0.03134
C         -2.52489        2.59587        0.05120
C         -1.66596        3.80493        0.03380
O         -2.09350        4.93904        0.00209
N         -0.29562        3.55798        0.04852
C          0.57174        4.72496        0.04594
O          0.96010        5.25135        1.04594
O          0.83084        5.07226       -1.20132
C          1.68840        6.21108       -1.34083
C          0.35315        2.31656        0.03149
O          1.56032        2.28074       -0.04625
C         -0.53055        1.11602        0.10277
C         -1.94150        1.30333        0.08259
C         -2.80208        0.18225        0.09076
H         -0.46461       -2.28010        0.17288
H         -6.65751       -4.90269       -2.22700
H         -7.46609       -4.52089       -0.67052
H         -6.04343       -5.59957       -0.69093
H         -4.29734        3.76274        0.00841
H          1.81115        6.35107       -2.41329
H          2.65027        6.01555       -0.86249
H          1.22268        7.08768       -0.88585
