44
COMP82_200001.log	Energy: -1818562.4056713
C         -0.40967        0.61890       -0.18835
C         -1.86735        0.80967       -0.22828
C         -2.61736        1.93507       -0.45516
Cl        -1.96002        3.50191       -0.81845
C         -4.02262        1.72966       -0.41293
H         -4.74542        2.52414       -0.55488
C         -4.35068        0.42804       -0.15220
S         -2.92623       -0.54421        0.03383
C         -5.67697       -0.15934       -0.02929
S         -7.02166        0.50361       -0.90972
C         -8.10781       -0.65553       -0.24699
H         -9.15723       -0.65214       -0.50363
C         -7.45307       -1.50924        0.58702
Cl        -8.23298       -2.81100        1.42860
C         -6.06318       -1.23583        0.72242
H         -5.40022       -1.80126        1.36601
C          0.17455       -0.50606       -0.78075
C          1.54927       -0.72033       -0.74691
C          2.38412        0.20490       -0.11846
C          3.83430        0.29676        0.15887
C          3.99121        1.58053        0.96542
O          4.98879        2.12287        1.39694
N          2.73021        2.10440        1.10324
H          2.57096        2.98254        1.57125
C          1.76747        1.32109        0.48614
C          0.40615        1.54691        0.47136
C          4.88562       -0.50025       -0.18794
C          4.76420       -1.64765       -1.18618
O          3.80869       -2.02965       -1.83243
N          6.01430       -2.20084       -1.28805
H          6.20266       -2.96839       -1.91311
C          6.93902       -1.56209       -0.47292
C          8.27358       -1.88668       -0.31171
C          9.02069       -1.12477        0.58530
H         10.07241       -1.35152        0.73192
C          8.42787       -0.08328        1.29236
C          7.08144        0.23216        1.11694
C          6.30875       -0.50319        0.21489
H         -0.45207       -1.22020       -1.30604
H          1.96993       -1.58901       -1.22748
H         -0.02064        2.40952        0.97034
H          8.71895       -2.70979       -0.86159
H          9.01962        0.50141        1.98907
H          6.63977        1.05135        1.66145
