41
COMP21_300320.log	Energy: -1578851.6879003
C         -2.52757        0.33682        0.06031
C         -1.05703        0.25700        0.04896
C         -0.32004       -0.75004       -0.51097
C         -0.93256       -1.84625       -1.19061
N         -1.47318       -2.72758       -1.71507
C          1.10350       -0.56066       -0.34727
C          2.16073       -1.36568       -0.78421
O          1.94795       -2.50600       -1.49344
C          1.76793       -3.67956       -0.69920
C          3.45062       -0.93044       -0.50554
S          4.91470       -1.76273       -0.97222
C          5.87739       -0.53953       -0.22351
H          6.95662       -0.61398       -0.24251
C          5.15321        0.46194        0.34702
C          5.77014        1.57141        1.00172
N          6.29406        2.47227        1.50969
C          3.72394        0.26752        0.19584
C          2.66711        1.07079        0.63477
O          2.87237        2.21134        1.34483
C          3.02791        3.39161        0.55198
C          1.37688        0.63383        0.35653
S         -0.07988        1.46934        0.82343
C         -3.28517       -0.69241        0.70536
N         -2.77675       -1.74146        1.35291
S         -4.04268       -2.61004        1.87211
N         -5.27301       -1.70549        1.32638
C         -4.71951       -0.66693        0.69569
C         -5.41816        0.39559        0.06555
H         -6.50139        0.41542        0.06344
C         -4.68314        1.38227       -0.53307
C         -5.36465        2.46916       -1.17853
N         -5.93408        3.33833       -1.69004
C         -3.23528        1.35295       -0.54389
C         -2.54074        2.39739       -1.24291
N         -1.98487        3.23978       -1.81133
H          1.51661       -4.47728       -1.39744
H          0.94711       -3.55050        0.01425
H          2.68920       -3.92782       -0.15926
H          3.25217        4.19405        1.25382
H          2.10555        3.61641        0.00412
H          3.85914        3.28421       -0.15235
