33
COMP22_340300.log	Energy: -1481716.0045764
C          2.02720        0.26691        0.04441
C          0.64362       -0.17553        0.24738
C          0.24027       -1.34826        0.85186
C          1.09144       -2.31264        1.46393
N          1.70999       -3.13883        1.99388
C         -1.17538       -1.50822        0.85676
O         -1.83453       -2.55382        1.39784
C         -1.84067       -0.47062        0.24523
S         -0.70761        0.71655       -0.33030
C         -3.27140       -0.32670        0.07850
S         -4.41720       -1.50219        0.67424
C         -5.74748       -0.60137        0.09975
H         -6.75946       -0.95310        0.24247
C         -5.35537        0.55240       -0.52742
C         -6.21438        1.52285       -1.11927
N         -6.83878        2.36028       -1.62430
C         -3.93193        0.70798       -0.53813
O         -3.26983        1.74370       -1.09242
C          2.95877       -0.61518       -0.59817
N          2.67448       -1.82641       -1.07791
S          4.05696       -2.41349       -1.68623
N          5.06179       -1.17423       -1.39309
C          4.32981       -0.23655       -0.78734
C          4.79196        1.03662       -0.36369
H          5.82591        1.32300       -0.51334
C          3.89232        1.87865        0.23008
C          4.33514        3.17365        0.66638
N          4.71573        4.21333        1.00633
C          2.51159        1.49579        0.44603
C          1.66355        2.42210        1.14121
N          0.99994        3.18072        1.71239
H         -1.20986       -3.18113        1.78865
H         -3.89247        2.40307       -1.43051
