34
COMP51_300410.log	Energy: -1663692.5455424
C         -1.26169       -0.54497        0.20451
C          0.16848       -0.34648        0.13090
C          0.89696        0.79900        0.32720
C          0.34379        2.05597        0.70486
N         -0.04756        3.10366        1.01387
C          2.32474        0.62163        0.16573
C          3.32820        1.57730        0.30426
H          3.08208        2.60673        0.54540
C          4.63864        1.15730        0.12227
S          6.07791        2.14798        0.23592
C          7.08770        0.79384       -0.12674
H          8.16133        0.91629       -0.17675
C          6.39423       -0.35863       -0.32649
C          6.99782       -1.61369       -0.63654
N          7.45069       -2.65083       -0.88897
C          4.96262       -0.18491       -0.18965
C          3.95749       -1.14190       -0.32781
H          4.20244       -2.17194       -0.56747
C          2.65127       -0.71866       -0.14886
S          1.20916       -1.69837       -0.29696
C         -1.94536       -1.67691        0.62216
O         -1.43167       -2.82281        1.09090
N         -3.29621       -1.61778        0.55690
C         -3.67744       -0.45592        0.09827
S         -2.42011        0.66556       -0.27944
C         -5.07321       -0.09689       -0.08822
S         -6.34827       -1.20042        0.30225
C         -7.47628       -0.00268       -0.20848
H         -8.54217       -0.17766       -0.17373
C         -6.80695        1.11896       -0.62633
O         -7.32948        2.26737       -1.09667
N         -5.45068        1.06017       -0.55736
H         -0.48153       -2.72922        1.24894
H         -8.29161        2.20260       -1.09584
