34
COMP41_300010.log	Energy: -1403800.0640876
C         -2.12776        0.78947       -0.10405
C         -0.69062        0.55235       -0.05473
C          0.31965        1.48038        0.06382
C          0.15968        2.88842        0.20568
N          0.11120        4.04205        0.32337
C          1.64357        0.90435        0.04639
C          2.86981        1.56139        0.14690
H          2.91426        2.64069        0.25510
C          4.01304        0.77961        0.10305
S          5.66878        1.34402        0.20292
C          6.26938       -0.27014        0.06035
H          7.33527       -0.45485        0.07095
C          5.28832       -1.20394       -0.05751
C          5.52938       -2.60392       -0.18996
N          5.68829       -3.74724       -0.29954
C          3.95738       -0.63004       -0.03619
C          2.73142       -1.28378       -0.13216
H          2.68560       -2.36337       -0.23703
C          1.58621       -0.50091       -0.09077
S         -0.05827       -1.07575       -0.17585
C         -3.17706       -0.09483       -0.02090
C         -3.39728       -1.55856        0.16318
O         -2.59763       -2.45938        0.27260
N         -4.78690       -1.72085        0.18107
C         -5.43793       -3.00378        0.34204
C         -5.49847       -0.52645        0.01451
O         -6.70150       -0.43353       -0.00847
C         -4.45030        0.51593       -0.11719
C         -4.40932        1.86075       -0.28615
H         -5.22740        2.56144       -0.38267
S         -2.77865        2.40564       -0.32319
H         -4.66170       -3.76915        0.35940
H         -6.12250       -3.18152       -0.49044
H         -6.00287       -3.02799        1.27734
