44
COMP67_100003.log	Energy: -1459400.4206148
C         -1.76035        0.78387        0.18974
C         -0.40496        0.30229        0.29798
C         -0.09308       -1.03316        0.48363
H         -0.83093       -1.81202        0.64070
C          1.28462       -1.26535        0.39793
F          1.80085       -2.48986        0.55781
C          2.05946       -0.15640        0.13373
S          1.03980        1.23641        0.03217
C          3.49265       -0.01183       -0.01697
C          4.37551       -1.02878        0.05609
C          5.81027       -0.89710       -0.09837
C          6.59417        0.20369       -0.34119
F          6.09538        1.43790       -0.48231
C          7.98554       -0.04377       -0.43675
H          8.72042        0.72819       -0.62459
C          8.26226       -1.36713       -0.26147
H          9.23006       -1.84798       -0.28085
S          6.84098       -2.29541        0.01651
C         -2.90189        0.02191        0.11300
C         -3.35942       -1.36229        0.12125
O         -2.78736       -2.41237        0.31202
N         -4.78099       -1.22686       -0.14417
C         -5.76258       -2.22561       -0.24714
O         -6.92086       -1.96242       -0.46863
O         -5.25811       -3.43622       -0.07712
C         -6.20900       -4.49999       -0.16725
C         -5.13481        0.11425       -0.30910
H         -6.15895        0.36966       -0.53607
C         -4.02840        0.86552       -0.14924
C         -3.58477        2.24936       -0.21900
O         -4.18362        3.28299       -0.35372
N         -2.14549        2.13136       -0.01469
C         -1.37101        3.25433        0.35172
O         -0.57006        3.24899        1.25406
O         -1.65436        4.28385       -0.42732
C         -1.01982        5.51255       -0.06282
H          3.85309        0.99472       -0.20263
H          4.00967       -2.03348        0.24207
H         -5.63372       -5.41013       -0.00662
H         -6.67950       -4.50883       -1.15278
H         -6.97850       -4.38935        0.59996
H         -1.40906        6.25234       -0.76000
H          0.06414        5.42023       -0.15999
H         -1.27143        5.77990        0.96564
