40
COMP46_000013.log	Energy: -979884.4886037
C         -0.73204       -1.64595       -0.10065
C          0.68165       -1.26648        0.00196
C          1.09580        0.01563       -0.39152
C          2.43374        0.34944       -0.29674
C          3.11367        1.65108       -0.65296
H          2.97499        1.90533       -1.71083
H          2.71544        2.48849       -0.06746
C          4.56130        1.36646       -0.32451
C          5.66996        2.19150       -0.44386
C          6.91996        1.69910       -0.06931
H          7.79628        2.33444       -0.15703
C          7.05724        0.39862        0.41885
C          5.94764       -0.43309        0.53977
C          4.70075        0.05856        0.16536
C          3.37656       -0.57413        0.18076
C          2.97450       -1.84694        0.57347
C          1.63047       -2.18314        0.48354
C         -1.88047       -0.89499       -0.06107
C         -2.25027        0.52414        0.14901
O         -1.55916        1.49014        0.34724
N         -3.67972        0.53369        0.10908
C         -4.49040        1.67826        0.31545
O         -5.51956        1.66003        0.93288
O         -3.95509        2.73614       -0.28376
C         -4.65448        3.96335       -0.06716
C         -4.24646       -0.76280       -0.08784
O         -5.41601       -1.01562       -0.18393
C         -3.07184       -1.65428       -0.18900
C         -2.87343       -2.98625       -0.34334
H         -3.60420       -3.77518       -0.45378
S         -1.18103       -3.32153       -0.33944
H          0.36962        0.73576       -0.75016
H          5.56963        3.20485       -0.82331
H          8.03839        0.03261        0.70612
H          6.05743       -1.44445        0.92141
H          3.69142       -2.56898        0.95299
H          1.30946       -3.16725        0.81392
H         -4.05264        4.72746       -0.55663
H         -4.74419        4.16795        1.00191
H         -5.65169        3.91369       -0.51030
