42
COMP72_330000.log	Energy: -1807847.6710903
C         -0.84772        1.35423       -0.65000
C          0.44430        0.67981       -0.75077
C          0.76064       -0.42441       -1.50570
C         -0.18133       -1.10071       -2.33695
N         -0.94922       -1.63408       -3.02068
C          2.12822       -0.81883       -1.36434
C          2.68241       -1.95290       -2.03190
N          3.13534       -2.86815       -2.57977
C          2.83648        0.00025       -0.50801
S          1.81712        1.24409        0.12517
C          4.24767       -0.07607       -0.14843
S          5.45831       -0.43685       -1.33352
C          6.71920       -0.31226       -0.18839
H          7.74792       -0.48123       -0.47475
C          6.25345        0.00020        1.05920
C          7.09651        0.15991        2.20137
N          7.78798        0.29054        3.12143
C          4.82503        0.13826        1.08684
C          4.09730        0.44422        2.27629
N          3.51338        0.70106        3.24383
C         -2.06496        0.84359       -0.26388
C         -2.31527       -0.53548        0.25103
O         -1.41422       -1.34225        0.41298
C         -3.72608       -0.82758        0.55638
C         -4.17421       -2.05665        0.97179
C         -3.40114       -3.31723        1.19825
S         -5.88456       -2.00410        1.22031
C         -6.01533       -0.33868        0.77385
C         -7.33573        0.36507        0.78588
C         -4.77875        0.15264        0.44197
C         -4.52598        1.53638        0.00859
O         -5.38787        2.39668       -0.07142
C         -3.10843        1.82069       -0.34011
C         -2.66803        3.04010       -0.76653
H         -3.26570        3.93147       -0.90052
S         -0.99025        3.02620       -1.09728
H         -2.85675       -3.59409        0.29093
H         -4.05881       -4.14193        1.48469
H         -2.65316       -3.16994        1.98235
H         -8.14782       -0.31474        1.05614
H         -7.54394        0.79759       -0.19638
H         -7.31684        1.19517        1.49792
