32
COMP61_400011.log	Energy: -1142653.7643275
C          2.44201       -0.54004       -0.01562
C          1.02771       -0.41991        0.08174
C          0.24643        0.71940       -0.06425
O          0.59547        1.96908       -0.27264
C         -1.16978        0.41830       -0.04333
C         -2.20493        1.34166       -0.17419
H         -1.98034        2.39432       -0.30823
C         -3.50196        0.85510       -0.12500
S         -4.98038        1.78162       -0.26286
C         -5.93821        0.32998       -0.08047
H         -7.01817        0.39765       -0.10076
C         -5.18765       -0.78619        0.07521
O         -5.60564       -2.06503        0.24050
C         -3.76791       -0.52386        0.05572
C         -2.73005       -1.44626        0.18998
H         -2.94529       -2.49988        0.33041
C         -1.43497       -0.95642        0.13181
S          0.04042       -1.88122        0.28972
C          3.45677        0.40549        0.02032
C          3.70385        1.79659        0.25212
O          2.94659        2.75997        0.44861
N          5.09733        1.89537        0.21609
H          5.57335        2.77529        0.34012
C          5.70419        0.66582        0.00355
H          6.78005        0.57187       -0.02409
C          4.72023       -0.25803       -0.12394
C          4.47061       -1.69338       -0.27754
O          5.19175       -2.64652       -0.45654
N          3.05422       -1.77302       -0.17068
H          2.56930       -2.63948       -0.35447
H          1.52591        2.23964        0.01831
H         -6.56974       -2.09174        0.23495
