54
COMP81_300001.log	Energy: -1454662.4631803
C         -0.11903       -0.01874        0.09072
C          1.35165       -0.00840        0.05793
C          2.19783        1.04106       -0.19843
C          1.69930        2.33984       -0.51892
N          1.28117        3.39327       -0.76814
C          3.60690        0.68294       -0.15725
C          4.73667        1.48867       -0.36998
C          4.64207        2.95749       -0.69014
C          5.96335        0.83933       -0.26414
S          7.51477        1.63424       -0.48599
C          8.35488        0.16587       -0.18191
H          9.43619        0.14006       -0.20658
C          7.53670       -0.88981        0.07570
C          8.10327       -2.17251        0.34745
N          8.60418       -3.19639        0.56304
C          6.12173       -0.54187        0.03603
C          4.99132       -1.34396        0.24391
C          5.01471       -2.81300        0.57374
C          3.76494       -0.69037        0.13689
S          2.22190       -1.48059        0.36867
C         -0.82715       -1.10147       -0.44294
C         -2.21816       -1.14198       -0.42613
C         -2.93733       -0.08681        0.13604
C         -4.37055        0.25086        0.27252
C         -4.38344        1.63429        0.91017
O         -5.31413        2.34304        1.23476
N         -3.06824        1.96770        1.12640
H         -2.80495        2.86106        1.51207
C         -2.19930        0.99945        0.65232
C         -0.82012        1.05334        0.65734
C         -5.50474       -0.44206       -0.03132
C         -5.49920       -1.92226       -0.40544
O         -4.57384       -2.70402       -0.49920
N         -6.81126       -2.27500       -0.58433
H         -7.07699       -3.21567       -0.82914
C         -7.67301       -1.20038       -0.40741
C         -9.04666       -1.19727       -0.56579
C         -9.71548        0.01098       -0.37534
H        -10.79442        0.04717       -0.49223
C         -9.01207        1.16592       -0.04717
C         -7.62751        1.14491        0.11332
C         -6.93006       -0.05390       -0.05386
H          4.10520        3.50175        0.09202
H          4.10661        3.12653       -1.62894
H          5.63063        3.41277       -0.78822
H          6.01129       -3.24821        0.53441
H          4.38354       -3.37169       -0.12735
H          4.61641       -2.98400        1.58116
H         -0.28682       -1.92274       -0.90319
H         -2.73663       -1.99253       -0.83957
H         -0.30192        1.90282        1.08702
H         -9.58050       -2.10306       -0.83546
H         -9.54360        2.10172        0.09071
H         -7.09719        2.04547        0.37939
