30
COMP32_430000.log	Energy: -1297224.8964967
C         -2.42972        0.05358       -0.05428
C         -1.02456       -0.36047        0.04131
C         -0.51554       -1.53529        0.55115
O         -1.18193       -2.56892        1.08894
C          0.91427       -1.57396        0.53301
C          1.64333       -2.68870        1.04242
N          2.23032       -3.60065        1.45183
C          1.47779       -0.42974        0.00449
S          0.26270        0.68678       -0.47937
C          2.88909       -0.13098       -0.19830
S          3.98173       -1.33714       -0.76896
C          5.30868       -0.24003       -0.76136
H          6.29466       -0.57409       -1.05380
C          4.93337        1.00365       -0.34255
O          5.69806        2.10488       -0.20368
C          3.53977        1.07589       -0.01922
C          2.93433        2.27023        0.47128
N          2.45250        3.24796        0.86609
C         -2.84028        1.36012        0.23911
F         -1.94560        2.27357        0.61255
C         -4.17277        1.74205        0.15002
F         -4.49862        2.99846        0.44220
C         -5.15475        0.83950       -0.22242
H         -6.19307        1.14049       -0.28469
C         -4.77177       -0.45825       -0.51218
F         -5.67696       -1.36350       -0.87848
C         -3.43865       -0.83280       -0.43975
F         -3.12658       -2.10942       -0.74764
H         -2.05829       -2.64001        0.68590
H          6.61153        1.89973       -0.43585
