31
COMP21_300210.log	Energy: -1896234.6589259
C         -2.05473       -0.16511       -0.11676
C         -0.58181       -0.19884       -0.06764
C          0.20269        0.55752        0.75210
C         -0.31616        1.44736        1.73859
N         -0.71074        2.17560        2.54992
C          1.61843        0.37436        0.52395
C          2.68309        0.98412        1.18405
H          2.50272        1.69765        1.98203
C          3.96366        0.64398        0.77516
S          5.46799        1.25989        1.42781
C          6.38702        0.29188        0.33019
H          7.46802        0.32987        0.34829
C          5.61772       -0.46544       -0.49630
C          6.13767       -1.34762       -1.48981
N          6.52256       -2.07388       -2.30770
C          4.19772       -0.28664       -0.26669
C          3.13249       -0.89706       -0.92572
H          3.31233       -1.61100       -1.72345
C          1.85169       -0.55351       -0.51965
S          0.35091       -1.16184       -1.17900
C         -2.69294        1.03688       -0.56478
N         -2.07030        2.14214       -0.97262
S         -3.23805        3.20663       -1.34943
N         -4.56177        2.32155       -1.02788
C         -4.12175        1.13704       -0.59994
C         -4.92690        0.03535       -0.20683
H         -6.00693        0.10946       -0.23930
C         -4.30473       -1.10319        0.20918
Cl        -5.28147       -2.45366        0.68951
C         -2.86384       -1.20705        0.26445
Cl        -2.15404       -2.66770        0.86395
