42
COMP61_100013.log	Energy: -1458669.1360144
C         -1.29952        0.78427        0.14984
C          0.07976        0.34795        0.14390
C          1.14903        0.96772       -0.42509
F          1.07609        2.12192       -1.08863
C          2.39614        0.28440       -0.29682
C          3.65056        0.67695       -0.76717
H          3.77259        1.60988       -1.30673
C          4.71410       -0.17034       -0.50744
S          6.38918        0.06598       -0.96988
C          6.84646       -1.44446       -0.22432
H          7.87252       -1.78268       -0.24097
C          5.79418       -2.07411        0.33263
F          5.86399       -3.24612        0.96696
C          4.53764       -1.38660        0.20085
C          3.28518       -1.77871        0.66633
H          3.16165       -2.71302        1.20319
C          2.21793       -0.92942        0.40990
S          0.55138       -1.18546        0.86422
C         -2.43766        0.03675        0.09908
C         -2.89613       -1.35012        0.01612
O         -2.31167       -2.40049        0.08851
N         -4.33421       -1.18758       -0.15996
C         -5.32640       -2.17159       -0.28926
O         -6.49266       -1.89015       -0.43300
O         -4.81956       -3.39200       -0.23420
C         -5.77673       -4.44611       -0.36508
C         -4.68492        0.16486       -0.19172
H         -5.71796        0.43888       -0.34772
C         -3.57159        0.90421       -0.02489
C         -3.11489        2.29067       -0.01456
O         -3.71109        3.33479       -0.02925
N         -1.67045        2.14574        0.08571
C         -0.83672        3.20157        0.53204
O          0.00658        3.07250        1.38220
O         -1.13209        4.31714       -0.11294
C         -0.41608        5.47339        0.32627
H         -5.19899       -5.36580       -0.29096
H         -6.28129       -4.38352       -1.33170
H         -6.51838       -4.38990        0.43458
H         -0.80431        6.29520       -0.27282
H          0.65438        5.33953        0.15560
H         -0.59541        5.65211        1.38860
