48
COMP94_000003.log	Energy: -1524200.0715989
C         -0.56379       -0.72040        0.04521
C         -1.75282       -1.58998        0.04494
C         -2.79070       -1.58956       -0.84177
H         -2.89640       -0.85885       -1.63336
C         -3.69830       -2.64954       -0.58222
S         -5.17875       -3.19878       -1.29648
C         -5.29292       -4.48256       -0.13029
H         -6.13122       -5.16464       -0.17344
C         -4.26444       -4.50167        0.76141
H         -4.16823       -5.23007        1.55638
C         -3.34492       -3.44563        0.49473
S         -1.86836       -2.89852        1.20887
C          0.69701       -1.37543        0.04664
C          1.87343       -0.68236       -0.04084
C          3.15687       -1.43133       -0.04532
O          3.23653       -2.63568        0.05984
N          4.30719       -0.65094       -0.18428
C          5.56954       -1.36759       -0.24913
O          6.06239       -1.72931       -1.27609
O          6.03957       -1.53524        0.97320
C          7.28134       -2.24598        1.04645
C          4.37577        0.74173       -0.28736
O          5.44798        1.29998       -0.37196
C          3.07211        1.45455       -0.28296
C          3.05594        2.82535       -0.40403
H          3.99535        3.35784       -0.50385
C          1.82938        3.50810       -0.40081
C          0.64428        2.81853       -0.26749
C         -0.62115        3.58834       -0.26710
O         -0.68723        4.78934       -0.42293
N         -1.76911        2.82975       -0.06089
C         -3.02607        3.55634       -0.01113
O         -3.76701        3.63989       -0.94578
O         -3.18409        4.07971        1.19045
C         -4.38218        4.84594        1.35915
C         -1.85931        1.44825        0.16767
O         -2.92518        0.98593        0.50600
C         -0.59284        0.67326       -0.00704
C          0.62521        1.40545       -0.14016
C          1.86523        0.72701       -0.15592
H          0.73664       -2.45905        0.09322
H          7.50729       -2.32297        2.10845
H          8.06137       -1.69032        0.52173
H          7.17131       -3.23628        0.59984
H          1.79035        4.58708       -0.50443
H         -4.33866        5.22914        2.37712
H         -5.25670        4.20662        1.22164
H         -4.40743        5.66454        0.63704
