30
COMP62_030001.log	Energy: -1116168.3968746
C         -2.15472       -0.44315       -0.09978
C         -0.78481        0.00381       -0.04741
C         -0.36607        1.28928        0.19033
H         -1.05243        2.11426        0.36046
C          1.04897        1.39942        0.19396
C          1.71862        2.63725        0.44565
N          2.24940        3.64800        0.64644
C          1.70190        0.19752       -0.04058
S          0.55512       -1.07031       -0.27993
C          3.13170       -0.06256       -0.12423
S          4.21782        1.08784       -0.82213
C          5.57428        0.06787       -0.56157
H          6.56170        0.39880       -0.85235
C          5.22876       -1.10850        0.02865
H          5.92767       -1.89232        0.29052
C          3.82697       -1.19111        0.28001
C          3.22911       -2.32522        0.91056
N          2.76448       -3.25906        1.41732
C         -3.29706        0.30402        0.00419
C         -3.77338        1.66801        0.18154
O         -3.20307        2.73354        0.33680
N         -5.18013        1.50562        0.14145
H         -5.81009        2.28503        0.25202
C         -5.55256        0.18796       -0.03365
H         -6.59566       -0.09245       -0.08450
C         -4.42875       -0.56833       -0.12092
C         -3.94273       -1.93770       -0.30484
O         -4.49547       -3.00427       -0.44016
N         -2.52861       -1.76336       -0.28863
H         -1.90744       -2.55777       -0.33387
