37
COMP69_000021.log	Energy: -1168032.0867100
C         -2.45084       -0.70066        0.07368
C         -1.02063       -0.61481        0.05790
C         -0.28810        0.55907        0.07880
C          1.09173        0.30826        0.01316
C          1.40092       -1.03193       -0.03281
S          0.01249       -2.02940       -0.02032
C          2.84142       -1.19580       -0.05415
C          3.43657        0.04026       -0.03097
C          2.37526        1.14336        0.03185
O          2.57440        1.95954       -1.08475
C          1.55540        2.91942       -1.31726
O          2.35008        1.87572        1.22479
C          3.54686        2.56612        1.53214
C          4.84842       -0.02684       -0.12756
C          5.28425       -1.32190       -0.19969
H          6.30332       -1.67686       -0.26905
S          3.98423       -2.46918       -0.17229
C         -3.37277        0.31834        0.03220
C         -3.48726        1.76107       -0.06611
O         -2.66857        2.66734       -0.11389
N         -4.89096        1.95240       -0.09715
H         -5.30052        2.87143       -0.15559
C         -5.58913        0.76188       -0.02742
H         -6.67003        0.74799       -0.04669
C         -4.68942       -0.25077        0.05445
C         -4.56445       -1.70827        0.12501
O         -5.36991       -2.61040        0.17562
N         -3.15500       -1.89461        0.12362
H         -2.75236       -2.81589        0.20614
H         -0.76751        1.53228        0.13393
H          1.95995        3.62383       -2.04586
H          1.29203        3.45352       -0.39823
H          0.65618        2.44956       -1.73300
H          3.92045        3.12363        0.66587
H          4.32215        1.87371        1.88423
H          3.29989        3.26358        2.33402
H          5.51321        0.82753       -0.15252
