35
COMP27_300300.log	Energy: -1435902.0279908
C         -2.61586        0.15065        0.11868
C         -1.25090       -0.33462        0.33331
C         -0.89286       -1.51987        0.92079
H         -1.60100       -2.22838        1.32761
C          0.51169       -1.72280        0.93863
C          1.13526       -2.86428        1.52800
N          1.64296       -3.78727        2.01215
C          1.22626       -0.69074        0.35172
S          0.15359        0.52564       -0.23061
C          2.66776       -0.60398        0.22399
C          3.33319        0.53324       -0.04987
C          4.77055        0.65375       -0.21977
C          5.73528       -0.29664       -0.51202
C          5.45486       -1.67474       -0.75370
N          5.23764       -2.79606       -0.95623
C          7.05524        0.24340       -0.59634
H          7.92911       -0.35526       -0.82004
C          7.07930        1.58551       -0.37620
H          7.93732        2.24303       -0.38104
S          5.50846        2.21194       -0.06366
C         -3.64898       -0.79020       -0.23273
N         -3.48362       -2.10392       -0.39108
S         -4.93342       -2.71094       -0.79232
N         -5.82803       -1.35805       -0.79016
C         -5.00066       -0.36290       -0.46653
C         -5.35860        1.00626       -0.36091
H         -6.37787        1.32455       -0.54218
C         -4.37542        1.89337       -0.02596
C         -4.71003        3.28571        0.09065
N         -5.00692        4.40197        0.17543
C         -3.01003        1.47322        0.22240
C         -2.08590        2.49534        0.62278
N         -1.36813        3.34391        0.95111
H          3.19948       -1.53795        0.38604
H          2.77650        1.46563       -0.13487
