30
COMP29_000410.log	Energy: -1274188.7222898
C          1.63730        0.33934        0.00141
C          0.20255        0.05023        0.00198
C         -0.39413       -1.19653        0.00518
C         -1.80165       -1.12891        0.00401
C         -2.27481        0.16376       -0.00005
S         -1.02044        1.32737       -0.00220
C         -3.72032        0.13211       -0.00087
C         -4.14350       -1.17821        0.00258
C         -2.95241       -2.10959        0.00614
H         -2.93823       -2.76338       -0.87440
H         -2.93942       -2.75804        0.89066
C         -5.55839       -1.29698        0.00187
C         -6.16923       -0.07423       -0.00224
H         -7.22952        0.13807       -0.00383
S         -5.03402        1.24127       -0.00503
C          2.63369       -0.71293       -0.00032
N          2.39876       -2.02155       -0.00134
S          3.84257       -2.77960       -0.00338
N          4.83170       -1.48339       -0.00311
C          4.04988       -0.41030       -0.00129
C          4.51533        0.93422       -0.00048
H          5.57893        1.14655       -0.00141
C          3.56656        1.90337        0.00118
O          3.82172        3.24154        0.00205
C          2.15044        1.61810        0.00216
O          1.32227        2.68320        0.00364
H          0.18189       -2.11053        0.00792
H         -6.10503       -2.23292        0.00412
H          4.77316        3.39950        0.00147
H          1.85539        3.49204        0.00340
