34
COMP57_040000.log	Energy: -1548694.2419372
C          2.02262       -0.10134       -0.29012
C          0.61887        0.25436       -0.20586
C          0.04567        1.50802       -0.23061
O          0.68899        2.69325       -0.33398
C         -1.37042        1.48829       -0.13894
H         -1.96127        2.39585       -0.13552
C         -1.88384        0.21994       -0.05733
S         -0.61466       -0.96639       -0.07462
C         -3.26547       -0.22328        0.02947
C         -4.33553        0.58149       -0.09077
C         -5.71697        0.14653        0.02743
C         -6.22570       -1.05383        0.45808
H         -5.60924       -1.87379        0.81260
C         -7.64861       -1.09989        0.41282
O         -8.40609       -2.16478        0.78331
C         -8.20866        0.06113       -0.04251
H         -9.26003        0.27476       -0.16478
S         -6.99929        1.22505       -0.42408
C          2.59885       -1.14632       -0.96698
H          2.04752       -1.85015       -1.57934
N          3.95325       -1.26915       -0.85887
C          4.44568       -0.32365       -0.11202
S          3.27258        0.77614        0.55484
C          5.86289       -0.16154        0.16919
S          7.04165       -1.26002       -0.48293
C          8.26492       -0.34975        0.31702
H          9.30905       -0.61854        0.24399
C          7.70704        0.69011        0.99899
H          8.25659        1.41536        1.58604
N          6.34485        0.79366        0.91374
H          1.62155        2.54825       -0.54485
H         -3.41727       -1.28783        0.19570
H         -4.18304        1.63875       -0.29831
H         -7.82615       -2.88002        1.06717
