50
COMP87_310001.log	Energy: -1530559.9064351
C          0.62286        0.57393        0.14735
C         -0.83070        0.76528        0.17922
C         -1.54962        1.90242        0.42131
F         -1.00296        3.08730        0.68702
C         -2.96403        1.75101        0.38944
C         -3.84748        2.83975        0.63382
N         -4.57388        3.72299        0.82791
C         -3.34017        0.44669        0.11047
S         -1.93726       -0.54066       -0.10819
C         -4.64048       -0.17978       -0.02969
C         -5.82792        0.45182        0.05447
C         -7.12862       -0.17628       -0.08745
C         -7.50261       -1.49127       -0.31793
C         -6.61738       -2.59435       -0.47322
N         -5.89013       -3.48914       -0.59991
C         -8.92076       -1.63866       -0.38616
F         -9.47962       -2.82283       -0.60144
C         -9.61377       -0.48439       -0.21481
H        -10.68488       -0.34947       -0.22566
S         -8.53268        0.82880        0.03906
C          1.18475       -0.67481        0.43684
C          2.55968       -0.88313        0.40606
C          3.41700        0.17184        0.09237
C          4.87530        0.31754       -0.09313
C          5.06522        1.75658       -0.55363
O          6.07709        2.36808       -0.83003
N          3.81309        2.32317       -0.56285
H          3.67006        3.28511       -0.82739
C          2.82539        1.41574       -0.21483
C          1.46446        1.64315       -0.19295
C          5.91245       -0.54258        0.11613
C          5.75301       -1.87091        0.84988
O          4.76336       -2.39106        1.32574
N          7.01048       -2.40895        0.94200
H          7.17438       -3.29455        1.39396
C          7.96519       -1.62087        0.31301
C          9.31183       -1.89818        0.16572
C         10.08611       -0.98244       -0.54495
H         11.14707       -1.17106       -0.67812
C          9.50910        0.16098       -1.08959
C          8.15106        0.42926       -0.92645
C          7.35208       -0.45949       -0.20304
H         -4.61206       -1.24870       -0.21945
H         -5.85691        1.52147        0.24029
H          0.54228       -1.50441        0.71682
H          2.96253       -1.85394        0.64762
H          1.06015        2.61541       -0.44729
H          9.74587       -2.80129        0.58301
H         10.12174        0.85988       -1.64954
H          7.71971        1.32534       -1.34374
