66
COMP91_000033.log	Energy: -1906490.4640112
C         -0.78687       -0.14206        0.23557
C          0.65021       -0.45078        0.18812
C          1.59429        0.23397       -0.49593
H          1.39166        1.13736       -1.04795
C          2.90010       -0.35578       -0.41307
C          4.10647        0.11454       -0.96830
C          4.24888        1.42475       -1.66986
O          5.22915        1.72832       -2.31492
O          3.21747        2.24971       -1.47863
C          3.33034        3.54974       -2.06552
C          5.24909       -0.66945       -0.81016
S          6.84039       -0.32283       -1.44538
C          7.46427       -1.76659       -0.70799
H          8.51110       -2.01103       -0.83678
C          6.55082       -2.48663       -0.02263
H          6.76135       -3.40775        0.49789
C          5.24205       -1.87960       -0.05898
C          4.04683       -2.32778        0.53566
C          4.05828       -3.57701        1.35088
O          5.04098       -4.21195        1.66059
O          2.82296       -3.94129        1.72228
C          2.73050       -5.11606        2.52768
C          2.88655       -1.56548        0.33403
S          1.28046       -1.89586        0.94839
C         -1.69198       -1.22204        0.05616
C         -3.04373       -1.02515       -0.03047
C         -3.93846       -2.19842       -0.20854
O         -3.54689       -3.34347       -0.26519
N         -5.30107       -1.90546       -0.30945
C         -6.20119       -3.04180       -0.41205
O         -6.65717       -3.60013        0.54128
O         -6.40726       -3.32217       -1.68544
C         -7.28779       -4.42756       -1.92100
C         -5.89553       -0.64002       -0.31108
O         -7.09484       -0.52346       -0.43950
C         -4.96804        0.50866       -0.14385
C         -5.47506        1.78811       -0.14545
H         -6.54243        1.93363       -0.26972
C         -4.60478        2.88140       -0.00339
C         -3.25258        2.68176        0.16682
C         -2.37026        3.86791        0.27630
O         -2.74906        5.01253        0.14777
N         -1.03405        3.57995        0.54653
C         -0.14084        4.70505        0.73762
O          0.65377        5.05070       -0.09011
O         -0.34952        5.24937        1.91921
C          0.45069        6.40265        2.20502
C         -0.46691        2.31400        0.77724
O          0.61988        2.25093        1.30255
C         -1.30477        1.14698        0.36424
C         -2.70120        1.37416        0.19073
C         -3.58005        0.28269        0.00856
H          2.43815        4.08604       -1.74551
H          3.37733        3.47067       -3.15428
H          4.23204        4.04759       -1.70290
H          1.66587       -5.26437        2.70245
H          3.26011       -4.97142        3.47201
H          3.15922       -5.97186        2.00201
H         -1.31040       -2.23398       -0.03659
H         -7.37109       -4.50617       -3.00344
H         -8.26243       -4.23279       -1.46904
H         -6.86192       -5.33949       -1.49739
H         -4.97971        3.89882       -0.03183
H          0.15480        6.71844        3.20370
H          0.24707        7.18720        1.47337
H          1.51000        6.13932        2.17864
