38
COMP49_000002.log	Energy: -1360627.2898607
C          1.38500       -1.16115        0.04515
C          0.00661       -0.72740        0.02902
C         -0.45763        0.57010        0.11134
C         -1.86432        0.63195        0.06745
C         -2.45666       -0.60661       -0.04607
S         -1.31276       -1.88100       -0.10610
C         -3.89103       -0.43923       -0.07440
C         -4.17941        0.90253        0.02226
C         -2.91013        1.73318        0.12410
C         -2.84290        2.49590        1.45791
C         -2.77079        2.70192       -1.06161
C         -5.57439        1.16341        0.00076
C         -6.30152        0.01064       -0.11174
H         -7.37704       -0.09485       -0.15239
S         -5.30535       -1.40835       -0.19310
C          2.54582       -0.42680        0.09918
C          2.94172        0.99804        0.14235
O          2.29855        2.02228        0.16696
N          4.34908        0.94863        0.12768
O          5.09718        2.06563        0.32844
C          5.46858        2.65263       -0.92032
C          4.92005       -0.33578        0.13398
O          6.09839       -0.58434        0.14779
C          3.72905       -1.22058        0.09554
C          3.50794       -2.55411        0.04199
H          4.22239       -3.36503        0.02674
S          1.80572       -2.86427        0.00038
H          0.21599        1.41614        0.19628
H         -2.94737        1.81009        2.30368
H         -3.64439        3.24053        1.51296
H         -1.88467        3.01792        1.55080
H         -2.82156        2.16486       -2.01320
H         -1.81219        3.22912       -1.01128
H         -3.57234        3.44815       -1.04132
H         -6.02731        2.14589        0.06572
H          6.05577        3.53151       -0.65156
H          4.57862        2.95443       -1.48103
H          6.07985        1.95820       -1.50469
