41
COMP41_200022.log	Energy: -2055672.7422437
C          2.35611        0.88601       -0.63054
C          0.92213        0.66241       -0.47319
C         -0.01566        1.48630        0.07282
Cl         0.38179        3.02435        0.76362
C         -1.34911        0.93012        0.08206
C         -2.56405        1.44772        0.55330
O         -2.67934        2.68419        1.11523
C         -2.93612        3.72571        0.17638
C         -3.69037        0.63911        0.46094
S         -5.27668        1.10876        1.02338
C         -5.93189       -0.40971        0.49421
H         -6.98382       -0.62313        0.62464
C         -5.01191       -1.22961       -0.06001
Cl        -5.43504       -2.79473       -0.67526
C         -3.67836       -0.66452       -0.09556
C         -2.46676       -1.17901       -0.57113
O         -2.35099       -2.41336       -1.13559
C         -2.06617       -3.45555       -0.20237
C         -1.33908       -0.36968       -0.47875
S          0.23915       -0.84725       -1.03331
C          3.39410        0.07090       -0.27873
C          3.57372       -1.22027        0.44018
O          2.77923       -1.98726        0.91976
N          4.97324       -1.36938        0.47664
O          5.55316       -2.51117        0.93046
C          5.88007       -2.39262        2.31776
C          5.72166       -0.35744       -0.15328
O          6.92196       -0.31440       -0.23169
C          4.67282        0.58123       -0.62744
C          4.63008        1.78156       -1.25837
H          5.44870        2.39077       -1.61633
S          2.99435        2.30135       -1.43494
H         -2.99128        4.64892        0.75399
H         -3.88670        3.55732       -0.34339
H         -2.12613        3.80196       -0.55746
H         -2.00722       -4.37511       -0.78512
H         -2.86690       -3.54370        0.53986
H         -1.11059       -3.27711        0.30426
H          6.33099       -3.35026        2.57956
H          4.97542       -2.22871        2.91081
H          6.60127       -1.58458        2.47326
