60
COMP91_400022.log	Energy: -1716360.1997000
C         -0.92276        0.07697       -0.03149
C          0.54560        0.10151       -0.13048
C          1.47176        0.78053        0.61953
O          1.20296        1.74463        1.51214
C          2.82950        0.32147        0.41080
C          4.02453        0.76820        0.99118
O          4.09430        1.76052        1.92048
C          4.00121        3.07574        1.38270
C          5.20063        0.13211        0.60761
S          6.78334        0.54403        1.21966
C          7.50581       -0.67837        0.20336
H          8.57811       -0.82552        0.22174
C          6.60648       -1.36199       -0.54472
O          6.86755       -2.36532       -1.42071
C          5.24317       -0.92168       -0.33483
C          4.04835       -1.36176       -0.91972
O          3.98294       -2.34602       -1.86149
C          4.04963       -3.66696       -1.33222
C          2.87429       -0.73381       -0.52607
S          1.29781       -1.12420       -1.15939
C         -1.47121       -1.21990        0.21172
C         -2.81244       -1.44469        0.32526
C         -3.28712       -2.82298        0.63370
O         -2.54889       -3.76838        0.78751
N         -4.67752       -2.95739        0.71796
O         -5.13854       -4.17740        1.13137
C         -5.37066       -5.04114        0.01682
C         -5.65263       -1.97283        0.51631
O         -6.83285       -2.23073        0.57689
C         -5.12398       -0.61364        0.21305
C         -6.01617        0.41231       -0.01082
H         -7.08003        0.21050        0.04628
C         -5.53314        1.68913       -0.32510
C         -4.17559        1.93193       -0.38722
C         -3.73360        3.28940       -0.77672
O         -4.47987        4.21003       -1.02132
N         -2.34448        3.44095       -0.83488
O         -1.88668        4.65956       -1.25524
C         -1.79727        5.58821       -0.17075
C         -1.36880        2.52781       -0.44126
O         -0.21471        2.91597       -0.33374
C         -1.82121        1.14246       -0.17944
C         -3.23226        0.90607       -0.13116
C         -3.73284       -0.38502        0.14418
H          0.55484        2.33345        1.07221
H          4.12828        3.75733        2.22479
H          3.02266        3.24016        0.92247
H          4.79544        3.24885        0.64616
H          7.81994       -2.51740       -1.44579
H          3.90196       -4.34061       -2.17750
H          3.25696       -3.82815       -0.59134
H          5.02837       -3.85585       -0.88098
H         -0.79683       -2.05780        0.35045
H         -5.74848       -5.96309        0.45950
H         -4.43596       -5.23872       -0.51572
H         -6.12483       -4.61406       -0.65088
H         -6.21345        2.50684       -0.53731
H         -1.44121        6.50975       -0.63170
H         -1.07429        5.24129        0.57273
H         -2.78107        5.75348        0.27654
