25
COMP24_400200.log	Energy: -1778494.8070945
C          0.95114       -0.06311        0.04340
C         -0.51870       -0.06773        0.05275
C         -1.35617        0.83742        0.67517
O         -1.01750        1.89282        1.44118
C         -2.72728        0.52852        0.44713
S         -4.22105        1.24800        0.94043
C         -5.10531        0.05800        0.01861
H         -6.18711        0.08165        0.01041
C         -4.29633       -0.83136       -0.62704
O         -4.64911       -1.86943       -1.42243
C         -2.91854       -0.55672       -0.37452
S         -1.42840       -1.25661       -0.88526
C          1.65693        1.16937       -0.19507
N          1.09068        2.37137       -0.31939
S          2.29263        3.44303       -0.57340
N          3.56692        2.44058       -0.53921
C          3.08636        1.21709       -0.31496
C          3.85721        0.03458       -0.18594
H          4.93400        0.06438       -0.29255
C          3.19291       -1.12102        0.08878
Cl         4.13128       -2.56921        0.27675
C          1.75272       -1.17557        0.22307
Cl         1.05228       -2.69980        0.65255
H         -0.26745        2.34279        1.00998
H         -5.61063       -1.91397       -1.48207
