28
COMP28_000400.log	Energy: -1046990.5700814
C         -0.69585       -0.57644       -0.05026
C          0.73423       -0.80873       -0.26294
C          1.76103       -0.06541        0.24690
O          1.60797        0.93245        1.15471
C          2.72094        1.81607        1.14835
C          4.01838        1.03022        1.24884
O          4.19435        0.17929        0.12229
C          3.04857       -0.45976       -0.24036
C          2.98468       -1.50544       -1.10731
H          3.80943       -1.99723       -1.60153
S          1.35607       -2.02688       -1.33969
C         -1.26151        0.72927       -0.26646
N         -0.60054        1.80187       -0.68890
S         -1.68556        3.01670       -0.77838
N         -3.03371        2.23239       -0.29076
C         -2.66494        0.98057       -0.04127
C         -3.52720       -0.07133        0.38577
H         -4.58303        0.11909        0.54822
C         -2.97099       -1.29797        0.55962
O         -3.64866       -2.41127        0.95671
C         -1.56272       -1.56041        0.34729
O         -1.12462       -2.81660        0.56232
H          2.59966        2.47179        2.01288
H          2.70757        2.41859        0.23108
H          4.01484        0.43089        2.16908
H          4.87979        1.70168        1.26229
H         -4.57720       -2.19948        1.10925
H         -1.87954       -3.35705        0.83835
