34
COMP57_030100.log	Energy: -1694554.7372306
C         -1.78838       -0.21075       -0.01325
C         -0.40492        0.20750       -0.08024
C          0.12049        1.47687       -0.26914
C         -0.66217        2.65673       -0.44721
N         -1.27794        3.62926       -0.59236
C          1.54299        1.51029       -0.28840
H          2.10358        2.42091       -0.45960
C          2.10873        0.27873       -0.10418
S          0.88507       -0.94058        0.08122
C          3.51390       -0.09443       -0.04823
C          4.51351        0.77695        0.16654
C          5.92539        0.42191        0.15335
C          6.54057       -0.68851       -0.36146
H          6.02292       -1.48187       -0.88635
C          7.95367       -0.67700       -0.16143
C          8.82938       -1.71648       -0.60656
N          9.53282       -2.56327       -0.96917
C          8.39340        0.44649        0.49249
H          9.41163        0.69580        0.75562
S          7.09473        1.49183        0.87340
C         -2.26856       -1.48923        0.15380
F         -1.47607       -2.54485        0.28090
N         -3.59489       -1.68166        0.19230
C         -4.19814       -0.52836        0.05369
S         -3.16750        0.84922       -0.13132
C         -5.64212       -0.38253        0.05090
S         -6.69184       -1.75228        0.22532
C         -8.03719       -0.68622        0.11236
H         -9.06012       -1.02636        0.16469
C         -7.57897        0.58781       -0.04462
F         -8.36035        1.64769       -0.16321
N         -6.24113        0.77088       -0.08069
H          3.74330       -1.14915       -0.18476
H          4.27758        1.81902        0.37215
