32
COMP52_420400.log	Energy: -2171290.0317061
C         -1.32864       -0.66955       -0.10801
C          0.11851       -0.69317        0.02018
C          0.84257       -1.61538        0.73728
O          0.34829       -2.63952        1.46285
C          2.25130       -1.39932        0.64962
Cl         3.38002       -2.40591        1.47643
C          2.58947       -0.31287       -0.10902
S          1.17414        0.44997       -0.75964
C          3.92367        0.20602       -0.40042
S          4.99500       -0.62672       -1.48076
C          6.22271        0.56843       -1.28137
H          7.17053        0.47148       -1.79309
C          5.83174        1.56214       -0.43274
O          6.52785        2.65173       -0.04319
C          4.50819        1.34956        0.06942
Cl         3.76850        2.44123        1.18037
C         -2.13152       -1.71955       -0.50382
O         -1.72140       -2.95226       -0.85261
N         -3.46843       -1.48640       -0.52902
C         -3.71523       -0.25529       -0.17239
S         -2.33650        0.70767        0.23960
C         -5.05678        0.30273       -0.11920
S         -6.44163       -0.64709       -0.54279
C         -7.42749        0.72555       -0.20235
H         -8.50216        0.69143       -0.31117
C         -6.64104        1.77435        0.19607
O         -7.03192        3.01493        0.54776
N         -5.30307        1.53128        0.24260
H         -0.60654       -2.51888        1.57041
H          7.39869        2.63848       -0.45749
H         -0.75650       -2.95484       -0.92860
H         -7.99184        3.07547        0.47890
