46
COMP72_140003.log	Energy: -2031837.3058878
C         -0.42913       -1.61213        0.48146
C         -1.66880       -0.86165        0.53358
C         -1.92447        0.28812        1.21646
F         -1.05475        0.93631        1.99223
C         -3.24125        0.78922        1.07261
O         -3.68285        1.92022        1.66988
C         -4.02595       -0.00902        0.27827
S         -3.10744       -1.37831       -0.30149
C         -5.40921        0.20327       -0.08638
S         -6.31843        1.60110        0.44692
C         -7.73544        1.09133       -0.39425
H         -8.64738        1.66876       -0.36919
C         -7.50885       -0.07833       -1.03655
F         -8.39746       -0.75301       -1.78458
C         -6.19545       -0.59834       -0.87445
O         -5.76718       -1.75354       -1.43579
C          0.86489       -1.16386        0.31667
C          1.27602        0.22712        0.01775
O          0.49846        1.12220       -0.24618
C          2.75478        0.43909       -0.03017
C          3.35737        1.66642       -0.15707
C          2.75682        3.02537       -0.00696
O          1.99891        3.34809        0.86953
O          3.24261        3.85408       -0.94103
C          2.78144        5.20443       -0.85297
S          5.05423        1.51392       -0.39196
C          4.98044       -0.20401       -0.30600
C          6.21730       -0.99394       -0.57376
O          6.26924       -1.99125       -1.24301
O          7.28000       -0.38907       -0.02079
C          8.53697       -1.02062       -0.27595
C          3.69551       -0.64057       -0.08673
C          3.28517       -2.04338        0.20827
O          4.07520       -2.95114        0.37012
C          1.82300       -2.23183        0.36000
C          1.25104       -3.45635        0.54150
H          1.76369       -4.40721        0.59003
S         -0.45130       -3.34005        0.68681
H         -2.92941        2.36805        2.07807
H         -6.49269       -2.13659       -1.94656
H          3.27868        5.73459       -1.66402
H          3.04842        5.63761        0.11382
H          1.69687        5.24147       -0.97655
H          9.28356       -0.38469        0.19762
H          8.71652       -1.09519       -1.35095
H          8.55058       -2.02176        0.16051
