54
COMP91_200000.log	Energy: -2010135.9635358
C          1.16095       -0.12935       -0.09814
C         -0.31955       -0.12461       -0.06899
C         -1.11581       -0.23426        1.01751
Cl        -0.41299       -0.27873        2.60820
C         -2.53762       -0.27032        0.72477
C         -3.64288       -0.36729        1.58415
C         -3.52924       -0.45312        3.08522
C         -4.89178       -0.37920        0.96480
S         -6.41168       -0.49196        1.83811
C         -7.30663       -0.44394        0.35924
H         -8.38653       -0.49311        0.36939
C         -6.51818       -0.34644       -0.73148
Cl        -7.22672       -0.28999       -2.32038
C         -5.09526       -0.30233       -0.43901
C         -3.98873       -0.20391       -1.29811
C         -4.10320       -0.11273       -2.79880
C         -2.74167       -0.19257       -0.67829
S         -1.22417       -0.08736       -1.55280
C          1.78675       -1.39876       -0.13878
C          3.15317       -1.52064       -0.16981
C          3.76771       -2.87626       -0.20914
O          3.09336       -3.88625       -0.21810
N          5.16440       -2.92573       -0.23399
C          5.81638       -4.23346       -0.27092
C          6.01116       -1.81573       -0.24594
O          7.21683       -1.96048       -0.28919
C          5.37139       -0.47415       -0.20147
C          6.15522        0.65712       -0.19671
H          7.23402        0.54895       -0.22632
C          5.55448        1.92816       -0.15266
C          4.18318        2.05394       -0.11747
C          3.58743        3.41413       -0.06742
O          4.27300        4.41763       -0.05684
N          2.19504        3.47567       -0.03398
C          1.55753        4.79024        0.02305
C          1.32795        2.37912       -0.02980
O          0.12979        2.56589        0.02044
C          1.94111        1.01866       -0.09186
C          3.35474        0.90692       -0.12462
C          3.96365       -0.36598       -0.16588
H         -2.92652       -1.31187        3.39132
H         -4.51087       -0.55846        3.55346
H         -3.06110        0.44381        3.50001
H         -4.56886       -1.00869       -3.21843
H         -3.12249        0.00007       -3.26760
H         -4.70974        0.74535       -3.09949
H          1.17621       -2.29571       -0.14124
H          5.04628       -4.99370       -0.16448
H          6.54125       -4.30153        0.54163
H          6.34289       -4.35962       -1.21953
H          6.15796        2.82929       -0.14552
H          2.33853        5.54201       -0.06037
H          1.02287        4.90262        0.96863
H          0.84131        4.88453       -0.79460
