31
COMP27_020200.log	Energy: -2358020.1721919
C         -2.69823       -0.09277       -0.09299
C         -1.27429       -0.01654        0.27357
C         -0.74006        0.38202        1.46586
Cl        -1.70779        0.83278        2.83121
C          0.67851        0.37836        1.50317
H          1.25140        0.62957        2.38702
C          1.22789       -0.01173        0.30986
S         -0.01096       -0.38778       -0.84861
C          2.63008       -0.12856       -0.06380
C          3.63318        0.48390        0.58652
C          5.04243        0.32111        0.26141
C          5.65752       -0.64852       -0.48813
H          5.14681       -1.49208       -0.93542
C          7.05966       -0.44078       -0.58790
Cl         8.09990       -1.51105       -1.47433
C          7.50851        0.65838        0.08121
H          8.52366        1.01903        0.16130
S          6.20461        1.47334        0.85009
C         -3.36315        1.08529       -0.56186
N         -2.79840        2.28157       -0.72215
S         -3.97160        3.26706       -1.26394
N         -5.22653        2.23401       -1.32039
C         -4.75504        1.05722       -0.90546
C         -5.49505       -0.15008       -0.79038
H         -6.54633       -0.17433       -1.04953
C         -4.84767       -1.26330       -0.34609
Cl        -5.74591       -2.74145       -0.20318
C         -3.44528       -1.23973        0.00714
Cl        -2.70034       -2.69161        0.58427
H          2.85374       -0.74604       -0.93142
H          3.39896        1.15969        1.40681
