30
COMP52_040100.log	Energy: -1624646.5532018
C          0.72753       -0.13431       -0.00383
C         -0.66076        0.26997       -0.00436
C         -1.14880        1.55313       -0.00849
H         -0.52217        2.44006       -0.01312
C         -2.56330        1.59869       -0.00664
O         -3.30809        2.73622       -0.01049
C         -3.16441        0.35890       -0.00115
S         -1.95073       -0.89284        0.00163
C         -4.58188        0.06532        0.00186
S         -5.80901        1.30916       -0.00247
C         -7.07299        0.14453        0.00477
H         -8.10537        0.46569        0.00472
C         -6.60238       -1.13337        0.01019
H         -7.23348       -2.01584        0.01526
C         -5.17957       -1.17494        0.00847
O         -4.43091       -2.30969        0.01277
C          1.27569       -1.39347       -0.00818
F          0.54578       -2.50190       -0.01353
N          2.61561       -1.51279       -0.00725
C          3.15990       -0.32569       -0.00167
S          2.04314        1.00316        0.00271
C          4.59219       -0.09966        0.00076
S          5.71643       -1.42235       -0.00482
C          7.00408       -0.27788        0.00203
H          8.04438       -0.56461        0.00159
C          6.47562        0.97678        0.00779
F          7.19769        2.08656        0.01396
N          5.12877        1.09191        0.00715
H         -2.72629        3.50425       -0.00983
H         -5.00971       -3.07992        0.01783
