40
COMP45_000002.log	Energy: -943473.9087678
C          1.37118        1.36804       -0.08667
C         -0.08575        1.21460        0.00035
C         -0.65555       -0.03579       -0.24479
C         -2.03581       -0.16044       -0.13884
N         -2.81631       -1.28872       -0.30703
C         -2.34488       -2.60734       -0.65724
C         -4.14113       -0.93482       -0.13087
C         -5.28389       -1.73159       -0.22152
C         -6.50983       -1.12501        0.01173
H         -7.41561       -1.72064       -0.05294
C         -6.60654        0.23987        0.32421
C         -5.46799        1.02728        0.40855
C         -4.22191        0.44149        0.17907
C         -2.86546        0.93825        0.17655
C         -2.28206        2.18352        0.41425
C         -0.90738        2.31526        0.33239
C          2.38502        0.44025       -0.11326
C          2.54333       -1.03729       -0.05502
O          1.74620       -1.94711       -0.02668
N          3.93674       -1.22087       -0.02959
O          4.48698       -2.45823       -0.14937
C          4.73936       -3.02060        1.13990
C          4.71418       -0.05421       -0.14118
O          5.91705       -0.00923       -0.17383
C          3.68914        1.01508       -0.17619
C          3.70312        2.36768       -0.21376
H          4.54900        3.03929       -0.25941
S          2.08486        2.96763       -0.18030
H         -0.02876       -0.88232       -0.49611
H         -1.28811       -2.69993       -0.39975
H         -2.46981       -2.80894       -1.72742
H         -2.89806       -3.35910       -0.08678
H         -5.22161       -2.78625       -0.47056
H         -7.58279        0.68139        0.49718
H         -5.54392        2.08464        0.64578
H         -2.89693        3.04130        0.67000
H         -0.46015        3.28192        0.54353
H          5.19818       -3.98908        0.93801
H          3.80166       -3.15677        1.68714
H          5.43142       -2.38928        1.70535
