50
COMP92_140002.log	Energy: -1649352.3314174
C          0.49216       -0.23883        0.32884
C         -0.95537       -0.42655        0.55458
C         -1.57315       -0.75432        1.71389
F         -0.95720       -0.91690        2.89609
C         -2.98385       -0.89324        1.62414
O         -3.77673       -1.21493        2.67379
C         -3.44994       -0.68070        0.35370
S         -2.12196       -0.30466       -0.72273
C         -4.82003       -0.75348       -0.10756
S         -6.14918       -1.15334        0.95914
C         -7.30771       -1.01581       -0.31190
H         -8.36017       -1.18303       -0.13917
C         -6.69640       -0.68460       -1.47302
F         -7.30100       -0.49759       -2.65822
C         -5.28577       -0.53107       -1.37752
O         -4.49126       -0.20306       -2.42520
C          1.26752       -1.41129        0.15513
C          2.61545       -1.34905       -0.08976
C          3.37857       -2.61606       -0.26083
O          2.88365       -3.71496       -0.16164
N          4.74115       -2.44699       -0.53544
O          5.43680       -3.58786       -0.82916
C          6.02438       -4.14548        0.34797
C          5.45876       -1.24867       -0.64002
O          6.65020       -1.24290       -0.84974
C          4.64923       -0.01263       -0.45847
C          5.26832        1.21173       -0.55745
H          6.33222        1.24838       -0.76504
C          4.52149        2.39100       -0.39102
C          3.17311        2.33131       -0.11965
C          2.43195        3.60710        0.05583
O          2.93640        4.70025       -0.06693
N          1.08238        3.45082        0.37291
O          0.41813        4.59751        0.71399
C         -0.24146        5.15972       -0.42162
C          0.34885        2.26224        0.52673
O         -0.81543        2.30773        0.84380
C          1.11345        1.00233        0.26445
C          2.50719        1.08463       -0.00894
C          3.26225       -0.09676       -0.18895
H         -3.23471       -1.24715        3.47298
H         -5.04535       -0.09986       -3.21018
H          0.78492       -2.38112        0.21307
H          6.53951       -5.04061       -0.00145
H          5.25091       -4.42044        1.07097
H          6.74498       -3.44756        0.78430
H          4.99177        3.36497       -0.47170
H         -0.73103        6.05506       -0.03766
H         -0.99040        4.46537       -0.81380
H          0.48665        5.43418       -1.19058
