60
COMP87_120003.log	Energy: -2277513.4540223
C          0.19274       -0.57678        0.21696
C          1.64930       -0.72493        0.34871
C          2.38704       -1.73870        0.90381
Cl         1.75612       -3.15320        1.66680
C          3.78562       -1.49689        0.85347
F          4.65714       -2.36991        1.35874
C          4.14597       -0.31396        0.26742
S          2.70734        0.51774       -0.24191
C          5.45217        0.27374        0.03714
C          6.62285       -0.29620        0.38134
C          7.93012        0.29336        0.15715
C          8.29030        1.48459       -0.41472
F          7.42052        2.37024       -0.90035
C          9.69252        1.71973       -0.45558
Cl        10.37353        3.15603       -1.12859
C         10.40575        0.69673        0.09015
H         11.47871        0.62001        0.18715
S          9.36753       -0.55300        0.65400
C         -0.41677        0.65270        0.49053
C         -1.78585        0.82327        0.34925
C         -2.58028       -0.24521       -0.07325
C         -4.02884       -0.43239       -0.21099
C         -4.21119       -1.87569       -0.61124
O         -5.22663       -2.43307       -0.94437
N         -2.92209       -2.45516       -0.64785
C         -2.61138       -3.78064       -0.98596
O         -1.48824       -4.15666       -1.22566
O         -3.68679       -4.55531       -0.98427
C         -3.44322       -5.91772       -1.34017
C         -1.95089       -1.48124       -0.31984
C         -0.58506       -1.66460       -0.19736
C         -5.08330        0.42383       -0.07022
C         -4.91126        1.92401       -0.11354
O         -3.90924        2.54898       -0.35617
N         -6.19349        2.48718        0.06693
C         -6.51166        3.85231        0.07859
O         -7.64491        4.26933        0.02487
O         -5.42909        4.61164        0.17726
C         -5.68140        6.01782        0.16471
C         -7.15466        1.45524        0.20007
C         -8.51273        1.58785        0.44433
C         -9.25613        0.42239        0.61599
H        -10.32270        0.50374        0.80205
C         -8.65327       -0.83044        0.55788
C         -7.29227       -0.95001        0.30510
C         -6.52227        0.19979        0.10421
H          5.45397        1.24471       -0.44782
H          6.62064       -1.26725        0.86599
H          0.18584        1.48718        0.83543
H         -2.22831        1.78449        0.55618
H         -4.42106       -6.39578       -1.31606
H         -2.76635       -6.38464       -0.62113
H         -3.00707       -5.98104       -2.33939
H         -0.13482       -2.61693       -0.43247
H         -4.69997        6.48262        0.24353
H         -6.31271        6.30162        1.00974
H         -6.17220        6.30973       -0.76629
H         -8.97338        2.56303        0.49649
H         -9.24649       -1.72733        0.70322
H         -6.83829       -1.92630        0.24411
