32
COMP67_000001.log	Energy: -1049003.9431358
C          2.74753       -0.41793        0.00657
C          1.35231       -0.08970       -0.07079
C          0.82802        1.18008       -0.18987
H          1.46150        2.06152       -0.23952
C         -0.58087        1.18671       -0.24775
H         -1.16688        2.09009       -0.36780
C         -1.14423       -0.06858       -0.16350
S          0.08884       -1.28190       -0.02338
C         -2.54246       -0.46321       -0.16917
C         -3.56560        0.39262        0.00423
C         -4.97087        0.02550       -0.04534
C         -5.56518       -1.12829       -0.49698
H         -5.00924       -1.95301       -0.92792
C         -6.97971       -1.11783       -0.36682
H         -7.62101       -1.93632       -0.67153
C         -7.45113        0.04346        0.17482
H         -8.47776        0.31458        0.37834
S         -6.17505        1.13827        0.53511
C          3.83421        0.42250       -0.01009
C          4.20570        1.82345       -0.09553
O          3.56481        2.85742       -0.19883
N          5.62081        1.76636       -0.02937
H          6.18777        2.59882       -0.06520
C          6.09325        0.47380        0.08439
H          7.15359        0.27227        0.14801
C          5.02780       -0.36699        0.09810
C          4.64613       -1.77803        0.18438
O          5.27710       -2.80627        0.28479
N          3.22764       -1.71376        0.12058
H          2.66587       -2.55084        0.15756
H         -2.74985       -1.52119       -0.31318
H         -3.34846        1.43940        0.20747
