34
COMP47_010000.log	Energy: -1413311.0707482
C         -2.66527       -0.93227       -0.04772
C         -1.22211       -1.02219       -0.07141
C         -0.45798       -2.16599       -0.11802
F         -1.00278       -3.38628       -0.15281
C          0.93515       -1.97890       -0.13654
H          1.64333       -2.79537       -0.19159
C          1.25655       -0.64315       -0.09663
S         -0.15930        0.35703       -0.04454
C          2.56208       -0.00594       -0.08912
C          3.72702       -0.66006        0.05844
C          5.03776       -0.03327        0.03473
C          5.39280        1.25073       -0.29532
H          4.70579        2.01965       -0.62508
C          6.78949        1.45570       -0.17404
F          7.35170        2.63422       -0.44935
C          7.49682        0.36509        0.23160
H          8.56212        0.28512        0.38705
S          6.43597       -0.96630        0.48240
C         -3.49512        0.15906        0.00459
C         -3.36743        1.63288        0.06064
O         -2.37889        2.33376        0.06957
N         -4.68431        2.11300        0.10409
C         -5.02007        3.51850        0.16569
C         -5.65477        1.10319        0.07870
O         -6.84785        1.29121        0.10591
C         -4.87741       -0.16013        0.01547
C         -5.13830       -1.48771       -0.02862
H         -6.09230       -1.99654       -0.03146
S         -3.66037       -2.38211       -0.08551
H          2.56798        1.07605       -0.20412
H          3.71500       -1.73684        0.21655
H         -4.08557        4.08058        0.15503
H         -5.57430        3.73548        1.08238
H         -5.63419        3.79844       -0.69391
