40
COMP67_240000.log	Energy: -1769482.1865578
C          2.95218        0.70693       -0.18918
C          1.66206        0.08554       -0.23031
C          1.39564       -1.26011       -0.49626
O          2.24097       -2.22442       -0.80058
C         -0.01200       -1.52207       -0.50906
Cl        -0.61480       -3.10369       -0.84144
C         -0.80497       -0.44015       -0.23012
S          0.17035        0.96590        0.04986
C         -2.25073       -0.42595       -0.14346
C         -2.98894        0.67590        0.08574
C         -4.43254        0.76365        0.19635
C         -5.43769       -0.17465        0.19598
Cl        -5.23697       -1.89409        0.05608
C         -6.75396        0.36762        0.33877
O         -7.88762       -0.36077        0.36648
C         -6.73652        1.72724        0.44761
H         -7.58879        2.37996        0.56322
S         -5.13342        2.34389        0.37763
C          4.17934        0.11751        0.07718
C          4.77586       -1.10131        0.53901
O          4.31020       -2.23617        0.73058
N          6.12315       -0.77435        0.74848
C          7.10949       -1.73819        1.18715
C          6.35816        0.56158        0.47147
H          7.33945        0.98975        0.62288
C          5.19611        1.12090        0.04983
C          4.57034        2.39067       -0.28634
O          5.01030        3.50438       -0.46511
N          3.18053        2.06127       -0.40598
C          2.25988        3.05821       -0.91618
H          3.05058       -2.25865       -0.20001
H         -2.72042       -1.39205       -0.28334
H         -2.47772        1.63095        0.20310
H         -7.66447       -1.29808        0.27826
H          6.59242       -2.68649        1.33960
H          7.56759       -1.42163        2.12868
H          7.88703       -1.87026        0.42885
H          2.87082        3.91152       -1.21645
H          1.55427        3.39136       -0.15025
H          1.71145        2.67666       -1.78078
