38
COMP67_000000.log	Energy: -1098327.3896383
C         -2.36478        0.57093       -0.00488
C         -0.96478        0.23170       -0.07878
C         -0.49307       -1.06299       -0.18694
H         -1.16222       -1.91804       -0.22929
C          0.91178       -1.14377       -0.24283
H          1.44832       -2.07842       -0.35461
C          1.53624        0.08168       -0.16836
S          0.36906        1.35486       -0.04104
C          2.95241        0.40733       -0.17544
C          3.93327       -0.49493        0.00547
C          5.35451       -0.19448       -0.04849
C          6.00176        0.91836       -0.52887
H          5.48435        1.75544       -0.98338
C          7.41446        0.84614       -0.39594
H          8.09325        1.62547       -0.72138
C          7.83166       -0.32106        0.17644
H          8.84440       -0.63461        0.38849
S          6.50561       -1.34553        0.56373
C         -3.42732       -0.31144       -0.01610
C         -3.76578       -1.71927       -0.08402
O         -3.10277       -2.74422       -0.17742
N         -5.18674       -1.71781       -0.01684
C         -5.96457       -2.93565       -0.03941
C         -5.68365       -0.43743        0.08490
H         -6.74968       -0.26428        0.15011
C         -4.64297        0.43547        0.08550
C         -4.31250        1.84776        0.15835
O         -4.98584        2.85319        0.24801
N         -2.88333        1.85704        0.09778
C         -2.17342        3.11637        0.13658
H          3.21098        1.45315       -0.32671
H          3.66711       -1.52856        0.21762
H         -5.26425       -3.75771       -0.19630
H         -6.69217       -2.91885       -0.85635
H         -6.48726       -3.08711        0.91045
H         -2.93787        3.89195        0.21299
H         -1.59417        3.27771       -0.77743
H         -1.51564        3.17978        1.00846
