42
COMP45_000003.log	Energy: -1014613.7497014
C         -0.84970       -1.76740       -0.07663
C          0.58207       -1.45163       -0.01085
C          0.99787       -0.12830       -0.16692
C          2.35803        0.14713       -0.09223
N          3.00052        1.36753       -0.19038
C          2.37574        2.65384       -0.38626
C          4.36166        1.15604       -0.07620
C          5.40160        2.08579       -0.12708
C          6.69566        1.60896        0.02661
H          7.52419        2.31014       -0.00806
C          6.95748        0.24424        0.22349
C          5.92026       -0.67508        0.26837
C          4.60868       -0.22148        0.11630
C          3.31799       -0.86941        0.10763
C          2.88869       -2.18880        0.25842
C          1.53593       -2.47204        0.20500
C         -1.97226       -0.97020       -0.02642
C         -2.30296        0.46651        0.13214
O         -1.59205        1.43162        0.27566
N         -3.72767        0.51821        0.12106
C         -4.49570        1.69914        0.28650
O         -5.49194        1.75406        0.95360
O         -3.96488        2.69562       -0.41323
C         -4.61832        3.95616       -0.24912
C         -4.33772       -0.76477       -0.01896
O         -5.51650       -0.98294       -0.08402
C         -3.19253       -1.69183       -0.11258
C         -3.04764       -3.03195       -0.24360
H         -3.80900       -3.79498       -0.32418
S         -1.37091       -3.43041       -0.26583
H          0.26930        0.65619       -0.32440
H          1.30900        2.57887       -0.16906
H          2.50527        3.01096       -1.41443
H          2.80978        3.38602        0.30176
H          5.21105        3.14244       -0.28600
H          7.98290       -0.09186        0.34028
H          6.12283       -1.73152        0.41946
H          3.60651       -2.98644        0.42441
H          1.21213       -3.49846        0.34867
H         -4.03795        4.65935       -0.84436
H         -4.61976        4.25007        0.80298
H         -5.64748        3.89927       -0.61045
