29
COMP17_020000.log	Energy: -1759064.6527041
C         -3.76563        0.03864       -0.28879
C         -2.37627        0.42225       -0.20290
C         -1.83089        1.67497       -0.01956
Cl        -2.75942        3.12714        0.16623
C         -0.42019        1.69854        0.04059
H          0.14521        2.60988        0.18785
C          0.12926        0.44726       -0.10002
S         -1.09942       -0.75375       -0.30977
C          1.52482        0.03937       -0.10378
C          2.56363        0.88046        0.03442
C          3.96199        0.48219        0.03489
C          4.52487       -0.76325       -0.08731
H          3.96657       -1.68319       -0.20784
C          5.94289       -0.71758       -0.03529
Cl         6.92673       -2.14168       -0.15981
C          6.45586        0.53571        0.12285
H          7.49484        0.82328        0.19208
S          5.19344        1.69765        0.21309
C         -4.84249        0.69710       -0.74471
C         -6.11056       -0.04739       -0.62553
C         -6.00314       -1.26193       -0.08630
H         -6.75837       -2.01275        0.09848
S         -4.30478       -1.57509        0.33907
O         -3.74515       -2.63513       -0.49269
O         -4.13986       -1.63131        1.78468
H          1.71073       -1.02490       -0.22925
H          2.37335        1.94443        0.15883
H         -4.80303        1.68519       -1.18468
H         -7.04612        0.37795       -0.97010
