38
COMP62_130002.log	Energy: -1384272.0835124
C         -1.89686        0.70748        0.03653
C         -0.46604        0.87046       -0.09174
C          0.28689        1.98748       -0.35054
F         -0.20083        3.19517       -0.57994
C          1.68638        1.75826       -0.39610
C          2.62717        2.80485       -0.62301
N          3.38177        3.66382       -0.81249
C          1.99421        0.42770       -0.16814
S          0.57362       -0.51260        0.06290
C          3.31087       -0.19399       -0.14971
S          4.51346        0.21719       -1.32022
C          5.64825       -0.89035       -0.66035
H          6.63793       -1.00216       -1.07778
C          5.11904       -1.54433        0.40550
F          5.76267       -2.45500        1.12181
C          3.77984       -1.16468        0.71654
C          3.06237       -1.71146        1.82039
N          2.49158       -2.16594        2.72081
C         -2.65607       -0.41362       -0.16554
C         -2.57599       -1.76535       -0.70571
O         -1.66254       -2.47232       -1.07905
N         -3.94341       -2.16275       -0.66535
O         -4.38760       -3.35615       -1.14800
C         -4.11189       -4.41344       -0.22152
C         -4.78685       -1.18954       -0.18512
H         -5.85080       -1.37217       -0.13191
C         -4.02862       -0.10835        0.13610
C         -4.10843        1.26290        0.61267
O         -4.99356        1.94669        1.06767
N         -2.75736        1.72924        0.41766
O         -2.29151        2.79229        1.14744
C         -2.73619        4.03189        0.58374
H         -4.52992       -5.30635       -0.68724
H         -4.60495       -4.22247        0.73792
H         -3.03407       -4.52886       -0.08426
H         -2.18257        4.79539        1.13139
H         -3.80978        4.15158        0.73916
H         -2.49052        4.08000       -0.47976
