34
COMP67_300001.log	Energy: -1164725.1920982
C         -2.98588       -0.56144        0.07863
C         -1.67938        0.03888       -0.00212
C         -1.41867        1.37394       -0.18618
H         -2.20111        2.11970       -0.29808
C         -0.02612        1.64707       -0.21230
C          0.52238        2.95212       -0.40707
N          0.98079        4.00381       -0.57241
C          0.77221        0.52379       -0.05565
S         -0.21191       -0.88426        0.14480
C          2.21957        0.49340       -0.05140
C          2.95761       -0.62905       -0.13961
C          4.40779       -0.69401       -0.10834
C          5.34998        0.20977        0.35450
C          5.03216        1.45637        0.97176
N          4.78751        2.47009        1.47969
C          6.69582       -0.24420        0.19780
H          7.55707        0.33418        0.50736
C          6.76327       -1.47850       -0.36913
H          7.64827       -2.05465       -0.60001
S          5.20092       -2.10671       -0.72158
C         -4.21064        0.04400       -0.02093
C         -4.84542        1.33789       -0.22105
O         -4.40682        2.46235       -0.38835
N         -6.22339        1.00956       -0.18038
H         -6.94093        1.70905       -0.29071
C         -6.43695       -0.33870        0.02288
H         -7.43887       -0.74154        0.07870
C         -5.23057       -0.95369        0.12393
C         -4.58554       -2.25297        0.32445
O         -5.00676       -3.37429        0.49229
N         -3.20307       -1.91546        0.28056
H         -2.49222       -2.62153        0.39854
H          2.69548        1.46837        0.01491
H          2.45415       -1.58655       -0.26705
