67
COMP86_000022.log	Energy: -1150421.9456103
C          0.83571        0.47468       -0.37559
C          2.31190        0.53681       -0.49289
C          3.11317       -0.45213        0.10172
C          4.48713       -0.38377       -0.02369
C          5.55571       -1.33806        0.53068
O          5.40581       -1.60412        1.90471
C          5.41245       -0.47613        2.75323
O          5.60941       -2.57184       -0.11405
C          4.45318       -3.38110       -0.02499
C          6.84094       -0.60391        0.16322
C          8.14022       -0.97578        0.45275
C          9.17966       -0.16073       -0.00068
H         10.20990       -0.42701        0.21560
C          8.90572        0.99438       -0.73282
C          7.59204        1.36190       -1.02531
C          6.56015        0.55234       -0.56846
C          5.09628        0.68728       -0.68898
C          4.31895        1.67239       -1.28128
C          2.93182        1.58271       -1.18667
C          0.16461       -0.75235       -0.42848
C         -1.21937       -0.84620       -0.30860
C         -1.98020        0.31230       -0.14141
C         -3.40958        0.60874        0.09174
C         -3.45532        2.10165        0.39455
O         -4.36158        2.82095        0.75665
N         -2.18747        2.56549        0.10971
O         -1.77226        3.79965        0.53009
C         -2.06001        4.78164       -0.46601
C         -1.27849        1.53232       -0.08872
C          0.08974        1.64830       -0.19751
C         -4.53003       -0.16134        0.00021
C         -4.50848       -1.57717       -0.56300
O         -3.58522       -2.30878       -0.85818
N         -5.82989       -1.92420       -0.70199
O         -6.23966       -3.14851       -1.13765
C         -6.10301       -4.12720       -0.10127
C         -6.70128       -0.98945       -0.15767
C         -8.07172       -1.10125       -0.04009
C         -8.74284       -0.04371        0.57454
H         -9.82150       -0.09239        0.68948
C         -8.04228        1.06221        1.04550
C         -6.65618        1.15521        0.90759
C         -5.95580        0.12258        0.28193
H          2.65241       -1.24024        0.68986
H          5.28530       -0.85831        3.76762
H          4.59136        0.21487        2.52273
H          6.36318        0.06889        2.68885
H          4.75159       -4.37036       -0.37679
H          3.65048       -3.00285       -0.67140
H          4.09305       -3.45671        1.00619
H          8.33852       -1.88129        1.01781
H          9.72549        1.61692       -1.07912
H          7.38725        2.26436       -1.59445
H          4.77607        2.50492       -1.80843
H          2.31593        2.33615       -1.66943
H          0.73402       -1.66256       -0.58926
H         -1.70353       -1.80874       -0.35636
H         -1.65696        5.71271       -0.06476
H         -3.13949        4.87262       -0.61240
H         -1.56496        4.53218       -1.41064
H          0.56550        2.61732       -0.09721
H         -6.52178       -5.04171       -0.52293
H         -6.67028       -3.82869        0.78731
H         -5.04837       -4.27506        0.14493
H         -8.58795       -1.97769       -0.41486
H         -8.57636        1.87240        1.53125
H         -6.12817        2.01948        1.27868
