36
COMP72_430001.log	Energy: -1737172.8488035
C          1.07461       -0.78653       -0.70529
C         -0.20161       -0.11203       -0.52813
C         -0.57954        1.17982       -0.84378
O          0.19688        2.16315       -1.28661
C         -1.98975        1.39049       -0.69241
C         -2.58309        2.66603       -0.92765
N         -3.06302        3.70350       -1.12046
C         -2.66916        0.26911       -0.26169
S         -1.58699       -1.05096       -0.03124
C         -4.09578        0.12038       -0.00850
S         -5.26049        0.84299       -1.05599
C         -6.57723        0.20228       -0.14992
H         -7.59641        0.41567       -0.44121
C         -6.14659       -0.53821        0.91253
O         -6.88590       -1.18034        1.83897
C         -4.71778       -0.59332        0.99958
C         -4.04853       -1.28663        2.05059
N         -3.51625       -1.85736        2.90799
C          2.38563       -0.43307       -0.41774
C          2.84917        0.81165        0.21459
O          2.13088        1.78944        0.42463
C          4.27378        0.83721        0.59535
C          4.87176        1.87425        1.25628
H          4.40057        2.78306        1.60463
S          6.54453        1.57884        1.49726
C          6.46448        0.05831        0.69978
H          7.33842       -0.56708        0.57967
C          5.19706       -0.21060        0.27249
C          4.77698       -1.43072       -0.44674
O          5.54326       -2.32366       -0.75662
C          3.31983       -1.48838       -0.73067
C          2.72434       -2.59374       -1.25292
H          3.21607       -3.51040       -1.54898
S          1.03041       -2.39305       -1.38488
H          1.02806        2.13906       -0.75333
H         -7.82381       -1.03516        1.66660
