43
COMP88_000001.log	Energy: -1038488.9106321
C          2.03773        0.51936       -0.05247
C          3.49178        0.70282       -0.05765
C          4.48760       -0.23149        0.08177
O          4.27726       -1.56282        0.27961
C          5.45033       -2.34450        0.07827
C          6.64886       -1.70030        0.75118
O          6.92722       -0.43534        0.16714
C          5.80676        0.32645        0.04161
C          5.80700        1.67292       -0.14411
H          6.66519        2.32459       -0.21424
S          4.20073        2.28211       -0.27038
C          1.17827        1.59491        0.21450
C         -0.20441        1.45844        0.19563
C         -0.78047        0.21796       -0.08903
C         -2.15431       -0.31768       -0.13905
C         -1.97827       -1.80696       -0.41996
O         -2.80683       -2.68328       -0.56924
N         -0.62789       -2.01657       -0.53599
H         -0.24833       -2.92980       -0.72806
C          0.10338       -0.85563       -0.32387
C          1.47751       -0.73933       -0.32203
C         -3.37558        0.27928       -0.02229
C         -3.55961        1.79094       -0.01628
O         -2.74016        2.68506       -0.09658
N         -4.91240        2.01116        0.05100
H         -5.29621        2.94272        0.05605
C         -5.63352        0.82777        0.12704
C         -7.00367        0.69270        0.25836
C         -7.51989       -0.59819        0.35752
H         -8.59164       -0.73820        0.46148
C         -6.67202       -1.70138        0.33311
C         -5.29298       -1.54799        0.19524
C         -4.74607       -0.26825        0.07594
H          5.64040       -2.45544       -0.99714
H          5.24087       -3.32470        0.51086
H          7.54485       -2.30804        0.61128
H          6.45664       -1.58163        1.82579
H          1.59551        2.56779        0.45580
H         -0.83108        2.31338        0.39443
H          2.10962       -1.59652       -0.51784
H         -7.65060        1.56397        0.28947
H         -7.08574       -2.70091        0.41959
H         -4.64965       -2.41315        0.16541
