27
COMP22_110000.log	Energy: -1404909.9008974
C         -2.20193        0.71849       -0.45551
C         -0.86487        0.12153       -0.41631
C         -0.48755       -1.15954       -0.69083
F         -1.29975       -2.13184       -1.08294
C          0.90938       -1.37288       -0.56787
F          1.46043       -2.56308       -0.80858
C          1.61910       -0.26398       -0.20342
S          0.52583        1.07639        0.00654
C          3.04733       -0.15053        0.00483
S          4.14180       -1.49430       -0.19301
C          5.51484       -0.53429        0.21895
H          6.50762       -0.95815        0.23963
C          5.15275        0.74339        0.49331
F          5.98166        1.72264        0.84219
C          3.75342        0.96035        0.37166
F          3.20178        2.15322        0.60066
C         -3.32020        0.05972        0.15862
N         -3.28801       -1.10097        0.81180
S         -4.80732       -1.38650        1.31361
N         -5.56186       -0.06473        0.74059
C         -4.62840        0.66177        0.12226
C         -4.82742        1.92311       -0.50888
H         -5.81643        2.36617       -0.52665
C         -3.74253        2.53198       -1.06662
H         -3.85503        3.49471       -1.55479
C         -2.44456        1.93430       -1.04269
H         -1.62523        2.45875       -1.52600
