48
COMP67_430003.log	Energy: -1544986.9095875
C         -2.29927       -0.67017       -0.15099
C         -0.92247       -0.98041        0.17602
C         -0.41607       -2.03487        0.91906
C         -1.15895       -3.08566        1.52657
N         -1.68336       -3.97746        2.05288
C          0.99811       -1.97151        1.07361
O          1.74532       -2.85967        1.75562
C          1.56013       -0.87378        0.45781
S          0.34006        0.07950       -0.31434
C          2.96996       -0.54750        0.45071
C          3.50740        0.60374       -0.00093
C          4.93515        0.86274       -0.07199
C          5.94597       -0.02918       -0.34918
O          5.82072       -1.33956       -0.63085
C          7.24363        0.57993       -0.35541
C          8.45294       -0.13035       -0.61927
N          9.44205       -0.69510       -0.83327
C          7.18817        1.92348       -0.09355
H          8.02235        2.60852       -0.03862
S          5.58656        2.46385        0.15605
C         -2.89272        0.55512       -0.20055
C         -2.61009        1.97661        0.01965
O         -1.57897        2.57325        0.19722
N         -3.93511        2.56914       -0.05982
C         -4.31152        3.91839        0.06070
O         -5.46213        4.27014       -0.04045
O         -3.27076        4.69833        0.29402
C         -3.57908        6.08883        0.43407
C         -4.90676        1.59240       -0.28999
H         -5.94620        1.88238       -0.34004
C         -4.30232        0.39209       -0.39097
C         -4.60727       -1.03126       -0.50990
O         -5.63077       -1.61631       -0.73858
N         -3.29781       -1.64966       -0.33606
C         -3.01140       -2.97550       -0.75248
O         -2.00079       -3.27596       -1.33784
O         -3.98347       -3.78780       -0.39121
C         -3.79073       -5.16085       -0.74679
H          1.19266       -3.58541        2.07864
H          3.60588       -1.30912        0.89821
H          2.85026        1.40166       -0.34731
H          4.88857       -1.53763       -0.80411
H         -2.62283        6.57277        0.62397
H         -4.26512        6.24386        1.26940
H         -4.03136        6.47240       -0.48293
H         -4.70396       -5.66476       -0.43625
H         -2.92682       -5.56007       -0.21148
H         -3.63978       -5.25970       -1.82360
