30
COMP52_320000.log	Energy: -2098267.5149259
C          1.76472       -0.11030       -0.36448
C          0.37202        0.28952       -0.27581
C         -0.17618        1.52649        0.00332
C          0.58244        2.70334        0.27014
N          1.19534        3.66258        0.48998
C         -1.60790        1.50971       -0.02498
Cl        -2.55429        2.91241        0.29338
C         -2.13702        0.28660       -0.31975
S         -0.87028       -0.88000       -0.55036
C         -3.54306       -0.08553       -0.44911
S         -4.47582        0.38302       -1.83854
C         -5.87688       -0.39060       -1.24389
H         -6.80481       -0.37066       -1.79839
C         -5.65915       -0.99419       -0.03341
C         -6.66395       -1.71033        0.68472
N         -7.48704       -2.29076        1.25735
C         -4.31076       -0.81388        0.41732
Cl        -3.73617       -1.44351        1.91329
C          2.26925       -1.15228       -1.10519
H          1.67860       -1.78689       -1.75665
N          3.60798       -1.36447       -1.01096
C          4.14905       -0.49262       -0.20249
S          3.05971        0.65728        0.50239
C          5.56991       -0.44937        0.10381
S          6.68278       -1.58295       -0.59946
C          7.94821       -0.80768        0.26953
H          8.97286       -1.14269        0.19289
C          7.45074        0.22442        1.00946
H          8.03763        0.87401        1.64635
N          6.10126        0.42373        0.91258
