33
COMP27_230200.log	Energy: -2473737.5201853
C         -2.95006        0.20166        0.03751
C         -1.56604       -0.20575       -0.25740
C         -1.18179       -1.34724       -0.91714
C         -2.11619       -2.27256       -1.47181
N         -2.89629       -3.00671       -1.91312
C          0.23886       -1.48934       -0.97679
Cl         0.99395       -2.82426       -1.76608
C          0.92393       -0.47330       -0.35924
S         -0.19829        0.67473        0.30926
C          2.36330       -0.33629       -0.25250
C          2.99330        0.71406        0.30215
C          4.42735        0.90358        0.44823
C          5.51626        0.10215        0.19894
Cl         5.45747       -1.51006       -0.41231
C          6.77017        0.72318        0.50970
C          8.04304        0.09790        0.34042
N          9.08189       -0.39782        0.20816
C          6.61516        1.99363        0.99462
H          7.39700        2.67370        1.30141
S          4.96929        2.43859        1.07393
C         -3.72040       -0.60529        0.93607
N         -3.28488       -1.69535        1.56668
S         -4.53915       -2.24304        2.44115
N         -5.66616       -1.13232        2.07271
C         -5.08455       -0.27945        1.22736
C         -5.68891        0.86239        0.63799
H         -6.71992        1.10997        0.85861
C         -4.94094        1.62482       -0.20844
Cl        -5.67367        3.01947       -0.93397
C         -3.56831        1.29479       -0.51945
Cl        -2.70681        2.28492       -1.64861
H          2.92601       -1.16458       -0.66609
H          2.39453        1.53701        0.69102
