48
COMP73_000023.log	Energy: -1409147.3027070
C         -2.01680       -1.45496       -0.19760
C         -3.19544       -0.57054       -0.20312
C         -3.09710        0.69022       -0.80647
C         -4.17533        1.56693       -0.79659
O         -4.14672        2.81502       -1.32196
C         -2.90357        3.30073       -1.79242
C         -5.38750        1.16525       -0.22253
H         -6.22446        1.85533       -0.23694
C         -5.49845       -0.08848        0.35168
C         -4.41010       -0.95935        0.36776
O         -4.55412       -2.20504        0.92963
C         -4.16071       -2.26267        2.29250
C         -0.69290       -1.12199       -0.00344
C         -0.16415        0.17630        0.48062
O         -0.81990        1.00925        1.07252
C          1.30099        0.35750        0.24037
C          1.96202        1.55931        0.28295
C          1.38604        2.93213        0.32050
O          0.39229        3.27738       -0.26748
O          2.16651        3.74987        1.03740
C          1.74508        5.11553        1.07941
S          3.66298        1.34739        0.11510
C          3.49492       -0.35429       -0.08880
C          4.69412       -1.16485       -0.45048
O          4.72034       -2.01272       -1.30256
O          5.75673       -0.76449        0.26320
C          6.98166       -1.43346       -0.04870
C          2.18261       -0.74674        0.01683
C          1.66665       -2.14673       -0.04461
O          2.38237       -3.12501        0.02601
C          0.19623       -2.23347       -0.19548
C         -0.46293       -3.38601       -0.50754
H         -0.01742       -4.35750       -0.67327
S         -2.15470       -3.14111       -0.59502
H         -2.15968        0.97599       -1.26534
H         -3.07667        4.34163       -2.06788
H         -2.56883        2.74679       -2.67921
H         -2.12844        3.24821       -1.01917
H         -6.43167       -0.41733        0.79750
H         -4.31584       -3.29270        2.61793
H         -4.77200       -1.58669        2.90368
H         -3.10299       -1.99570        2.41340
H          2.49836        5.63435        1.67034
H          0.76380        5.19304        1.55255
H          1.69205        5.53097        0.07033
H          7.72532       -1.00808        0.62362
H          7.25619       -1.25773       -1.09153
H          6.87789       -2.50749        0.11943
