56
COMP97_200003.log	Energy: -2198092.8235564
C          0.92295       -0.15534        0.36408
C         -0.51081       -0.43666        0.59475
C         -1.05973       -1.00130        1.70730
H         -0.50391       -1.24350        2.60491
C         -2.45755       -1.21760        1.57179
Cl        -3.35236       -1.93883        2.87368
C         -2.98060       -0.84410        0.35542
S         -1.69896       -0.20405       -0.63635
C         -4.30764       -0.90011       -0.23825
C         -5.45744       -1.18959        0.39871
C         -6.78606       -1.24754       -0.19132
C         -7.30777       -0.89945       -1.41697
Cl        -6.40720       -0.20491       -2.73093
C         -8.70531       -1.12816       -1.55490
H         -9.25643       -0.90329       -2.45928
C         -9.25043       -1.65287       -0.42384
H        -10.28268       -1.92231       -0.24983
S         -8.07277       -1.87053        0.80716
C          1.76722       -1.28519        0.22600
C          3.10822       -1.15163       -0.02669
C          3.94806       -2.37066       -0.16061
O          3.52486       -3.49779       -0.02706
N          5.29395       -2.14365       -0.45915
C          6.11839       -3.32324       -0.66343
O          6.24640       -3.85188       -1.72754
O          6.66621       -3.67711        0.48416
C          7.51205       -4.83165        0.41423
C          5.93072       -0.90726       -0.60452
O          7.11806       -0.85006       -0.83917
C          5.06119        0.28813       -0.45400
C          5.60992        1.54203       -0.59234
H          6.66844        1.63414       -0.80969
C          4.79787        2.68075       -0.45037
C          3.45691        2.55056       -0.16704
C          2.64005        3.77911       -0.01693
O          3.06972        4.90122       -0.17519
N          1.30985        3.56466        0.33752
C          0.51585        4.74918        0.62280
O          0.52233        5.29910        1.68373
O         -0.17100        5.08129       -0.45430
C         -1.02571        6.21990       -0.29409
C          0.65863        2.33926        0.52294
O         -0.49413        2.33313        0.89253
C          1.47532        1.11666        0.26343
C          2.86137        1.27164       -0.02097
C          3.68310        0.13151       -0.17048
H         -4.33639       -0.67491       -1.29889
H         -5.42759       -1.41075        1.46026
H          1.34149       -2.27942        0.31237
H          7.89904       -4.96828        1.42238
H          8.32472       -4.65706       -0.29375
H          6.93099       -5.70114        0.09978
H          5.21201        3.67729       -0.55930
H         -1.50472        6.35915       -1.26153
H         -0.43493        7.09719       -0.02256
H         -1.76848        6.02133        0.48133
