29
COMP58_000300.log	Energy: -1318197.7723368
C         -0.80603        0.77198        0.00543
C         -2.22442        0.50736       -0.00542
C         -2.81691       -0.73532       -0.00988
O         -2.12347       -1.89494        0.01671
C         -2.92421       -3.03247       -0.31398
C         -4.26840       -2.95963        0.38900
O         -5.00183       -1.81881       -0.04228
C         -4.24233       -0.69287       -0.03196
C         -4.72135        0.58033       -0.05269
H         -5.75666        0.88849       -0.06803
S         -3.45585        1.74778       -0.04002
C         -0.12202        1.97973        0.01199
C         -0.73544        3.27093        0.01984
N         -1.23754        4.31609        0.02724
N          1.24415        1.90904        0.01292
C          1.63041        0.66955        0.00933
S          0.36204       -0.51731        0.00547
C          3.02985        0.27442        0.00798
S          4.29918        1.46875        0.01849
C          5.44291        0.19260        0.00870
H          6.50853        0.37252        0.01050
C          4.79867       -1.01508       -0.00091
C          5.47170       -2.28049       -0.01112
N          6.03919       -3.29012       -0.01944
N          3.42739       -0.96372       -0.00144
H         -2.35646       -3.90575        0.00983
H         -3.06476       -3.07016       -1.40064
H         -4.12248       -2.91807        1.47619
H         -4.87858       -3.82976        0.14086
