34
COMP67_130001.log	Energy: -1289218.2557045
C          3.32082        0.65912       -0.23886
C          1.96513        0.16154       -0.27379
C          1.55101       -1.13974       -0.48064
C          2.39729       -2.23014       -0.83476
N          3.06020       -3.11896       -1.17001
C          0.13555       -1.25142       -0.42314
F         -0.46718       -2.42291       -0.60856
C         -0.53782       -0.08109       -0.18857
S          0.61405        1.20995       -0.01951
C         -1.95787        0.18933       -0.06532
C         -2.92373       -0.74541       -0.14950
C         -4.34515       -0.47948       -0.02653
C         -5.02281        0.69194        0.18378
F         -4.43090        1.87653        0.32095
C         -6.44073        0.56271        0.24876
C         -7.33143        1.65715        0.45946
N         -8.05521        2.54567        0.62965
C         -6.83200       -0.74098        0.08181
H         -7.84269       -1.12356        0.08641
S         -5.49551       -1.78092       -0.14865
C          4.44698        0.08433        0.27158
C          4.90709       -1.04384        1.08833
O          4.35121       -2.01925        1.53909
N          6.27743       -0.72254        1.29636
H          6.89233       -1.32788        1.81787
C          6.62582        0.48062        0.72690
H          7.62593        0.87833        0.83557
C          5.54026        0.99824        0.09451
C          5.04729        2.19718       -0.58540
O          5.58284        3.20729       -0.98097
N          3.65678        1.92058       -0.71729
H          3.06940        2.48383       -1.31489
H         -2.22862        1.22581        0.10711
H         -2.65120       -1.78171       -0.32044
