43
COMP59_000430.log	Energy: -1809942.2680166
C          1.72923       -0.72426        0.18675
C          0.28171       -0.67922        0.04644
C         -0.58134        0.33256        0.38670
C         -1.92176        0.00191        0.08934
C         -2.07814       -1.24557       -0.46307
S         -0.57624       -2.04663       -0.66721
C         -3.48834       -1.49705       -0.67201
C         -4.20732       -0.39813       -0.26662
C         -3.27034        0.67661        0.25561
C         -3.57520        1.02764        1.71490
O         -2.85006        0.82584        2.65217
O         -4.78675        1.59163        1.79809
C         -5.17987        2.00182        3.10967
C         -3.24779        1.98597       -0.54241
O         -2.73111        2.99180       -0.12043
O         -3.80332        1.86351       -1.74468
C         -3.72216        3.02705       -2.57271
C         -5.60653       -0.55087       -0.43689
C         -5.90923       -1.77030       -0.97262
H         -6.88660       -2.16831       -1.20795
S         -4.50156       -2.74235       -1.27713
C          2.48791       -1.67207        0.83949
O          2.03613       -2.75917        1.48798
N          3.83205       -1.48211        0.83110
C          4.12916       -0.38970        0.18160
S          2.78921        0.48515       -0.47602
C          5.49253        0.08758        0.01631
S          6.83059       -0.78097        0.69334
C          7.88056        0.42237        0.04133
H          8.95159        0.37336        0.17683
C          7.14471        1.36717       -0.62315
O          7.59433        2.46399       -1.26599
N          5.79756        1.17485       -0.63592
H         -0.26135        1.25621        0.85274
H         -6.16490        2.45149        2.99202
H         -4.46888        2.73055        3.50500
H         -5.22606        1.14105        3.78069
H         -4.22608        2.75896       -3.50007
H         -2.67741        3.28402       -2.76165
H         -4.21943        3.87228       -2.09187
H         -6.34527        0.19533       -0.17485
H          1.06947       -2.72904        1.51814
H          8.55504        2.49980       -1.19204
