52
COMP92_120003.log	Energy: -2274038.5953189
C          0.46278       -0.04624        0.03956
C         -0.97711       -0.26970        0.24361
C         -1.78185        0.25075        1.21120
F         -1.37012        1.12906        2.11280
C         -3.11437       -0.24115        1.19470
Cl        -4.28458        0.24840        2.35534
C         -3.32525       -1.14974        0.19249
S         -1.87255       -1.39504       -0.72439
C         -4.55281       -1.85735       -0.14957
S         -4.65299       -3.58813       -0.02989
C         -6.28533       -3.60369       -0.57426
H         -6.83868       -4.52460       -0.68343
C         -6.72221       -2.34293       -0.82381
F         -7.93993       -2.04330       -1.25843
C         -5.73978       -1.33609       -0.58989
Cl        -6.04516        0.32990       -0.88590
C          1.28922       -1.19916        0.03803
C          2.65016       -1.10732       -0.08246
C          3.46535       -2.35042       -0.06403
O          2.99434       -3.46160        0.04344
N          4.84422       -2.16668       -0.18141
C          5.65789       -3.37131       -0.20719
O          5.96367       -3.93091       -1.21772
O          5.97373       -3.70802        1.02955
C          6.77572       -4.88984        1.14465
C          5.52918       -0.95069       -0.27302
O          6.73911       -0.92919       -0.32993
C          4.68056        0.26892       -0.29113
C          5.27926        1.50314       -0.39506
H          6.35987        1.56201       -0.46606
C          4.48732        2.66378       -0.40805
C          3.11596        2.57503       -0.32229
C          2.32388        3.82791       -0.34023
O          2.81160        4.93710       -0.36982
N          0.94324        3.65136       -0.32979
C          0.13432        4.85275       -0.46506
O         -0.11652        5.35575       -1.51947
O         -0.24169        5.25784        0.73347
C         -1.08211        6.41798        0.74084
C          0.23117        2.44910       -0.25196
O         -0.97695        2.48076       -0.32292
C          1.05056        1.20716       -0.11527
C          2.46780        1.31786       -0.21226
C          3.27296        0.15615       -0.19632
H          0.84280       -2.18121        0.15829
H          6.92368       -5.03534        2.21313
H          7.73145       -4.74292        0.63735
H          6.25289       -5.74169        0.70520
H          4.93974        3.64633       -0.48715
H         -1.28386        6.61985        1.79124
H         -2.00839        6.21009        0.20119
H         -0.56505        7.25942        0.27516
