44
COMP41_100030.log	Energy: -1698475.2640901
C          2.52933       -0.97458       -0.10209
C          1.13601       -0.57288       -0.04516
C          0.05480       -1.39663       -0.10794
F          0.18733       -2.71419       -0.27788
C         -1.22584       -0.75188       -0.05900
C         -2.51942       -1.29849       -0.08337
C         -2.82963       -2.75258        0.04715
O         -3.74977       -3.29313       -0.52450
O         -2.03723       -3.36052        0.92846
C         -2.26676       -4.76082        1.09698
C         -3.59045       -0.41270       -0.18335
S         -5.27515       -0.85542       -0.35458
C         -5.73895        0.81904       -0.34046
H         -6.77323        1.10664       -0.46613
C         -4.69039        1.65682       -0.22382
F         -4.80917        2.98017       -0.27672
C         -3.41319        0.99386       -0.10891
C         -2.12845        1.53374        0.03414
C         -1.92253        2.98263        0.34958
O         -2.60220        3.61836        1.11460
O         -0.84336        3.46416       -0.28021
C         -0.47053        4.80257        0.05794
C         -1.04442        0.65315       -0.01013
S          0.64441        1.11086        0.03531
C          3.67916       -0.22633       -0.05333
C          4.07005        1.20277        0.06791
O          3.38745        2.19778        0.16768
N          5.47097        1.20164        0.04763
C          6.27044        2.40489        0.12760
C          6.03487       -0.07423       -0.07599
O          7.21945       -0.30599       -0.11774
C          4.87028       -0.99178       -0.13586
C          4.66549       -2.32593       -0.24680
H          5.39352       -3.12155       -0.32561
S          2.97544       -2.66886       -0.25400
H         -1.52317       -5.09127        1.82049
H         -2.13889       -5.28308        0.14618
H         -3.27713       -4.93728        1.47248
H          0.46909        4.98036       -0.46244
H         -0.33790        4.89972        1.13746
H         -1.23953        5.50238       -0.27657
H          5.60034        3.23298        0.36063
H          6.77395        2.59403       -0.82434
H          7.02354        2.29745        0.91129
