48
COMP72_340003.log	Energy: -2023059.5680503
C          0.30336       -1.68430        0.44698
C          1.53030       -0.91000        0.57659
C          1.72734        0.20212        1.36296
C          0.76020        0.78193        2.23197
N          0.03045        1.29284        2.97504
C          3.04658        0.73164        1.25032
O          3.50090        1.81480        1.91506
C          3.85132        0.01261        0.39900
S          2.96166       -1.32162       -0.28536
C          5.23446        0.28096        0.06530
S          6.11671        1.64318        0.71193
C          7.53212        1.22714       -0.14577
H          8.42978        1.82298       -0.06115
C          7.36007        0.09625       -0.90051
C          8.33981       -0.51916       -1.73183
N          9.07378       -1.08471       -2.43046
C          6.04010       -0.44517       -0.77729
O          5.59811       -1.55329       -1.40976
C         -0.96831       -1.24008        0.16800
C         -1.34138        0.13754       -0.25457
O         -0.53081        0.95288       -0.63938
C         -2.81122        0.40194       -0.23555
C         -3.40087        1.63905       -0.34831
C         -2.78242        2.99569       -0.31282
O         -1.80393        3.30174        0.31387
O         -3.52305        3.85071       -1.03749
C         -3.07804        5.20862       -1.01504
S         -5.11676        1.51261       -0.41967
C         -5.06753       -0.19496       -0.23512
C         -6.34609       -0.94892       -0.07299
O         -6.54515       -1.79285        0.75973
O         -7.26072       -0.50055       -0.94391
C         -8.54798       -1.11573       -0.84101
C         -3.77518       -0.65710       -0.16903
C         -3.37016       -2.09047       -0.10977
O         -4.13535       -3.01236       -0.30406
C         -1.93169       -2.29871        0.18166
C         -1.38013       -3.51859        0.44827
H         -1.89830       -4.46675        0.49432
S          0.30420       -3.39901        0.72747
H          2.77306        2.24898        2.38250
H          6.29703       -1.92235       -1.96809
H         -3.79500        5.76063       -1.62111
H         -2.07529        5.28485       -1.44132
H         -3.06305        5.58934        0.00891
H         -9.15913       -0.64088       -1.60712
H         -8.97317       -0.94921        0.15148
H         -8.46649       -2.18968       -1.02167
