46
COMP77_230002.log	Energy: -2411804.0913413
C         -1.35307       -1.58961        0.57657
C         -0.08197       -0.90053        0.77723
C          0.19068        0.12690        1.64905
C         -0.78598        0.69110        2.52180
N         -1.58239        1.12742        3.24120
C          1.55532        0.54165        1.58966
Cl         2.16869        1.81436        2.58023
C          2.31810       -0.16862        0.69624
S          1.33047       -1.35467       -0.10503
C          3.72877        0.01222        0.42072
C          4.46245       -0.77874       -0.38170
C          5.87390       -0.62386       -0.69673
C          6.75298        0.42428       -0.56864
Cl         6.36271        1.98944        0.04452
C          8.07570        0.12539       -1.03402
C          9.16656        1.04699       -1.01209
N         10.06120        1.78324       -1.00120
C          8.18185       -1.15151       -1.51474
H          9.06528       -1.62245       -1.92170
S          6.69741       -1.98833       -1.40518
C         -2.57800       -1.07618        0.21835
C         -2.85057        0.34111       -0.16848
O         -1.96816        1.17865       -0.23586
C         -4.26239        0.61633       -0.47544
C         -4.74765        1.85833       -0.78198
O         -4.03623        2.97430       -0.86889
C         -4.71221        4.20071       -1.08903
S         -6.48467        1.83340       -1.07542
C         -6.53237        0.09873       -0.77504
O         -7.65963       -0.59928       -0.84584
C         -8.86574        0.08177       -1.14690
C         -5.29680       -0.40174       -0.47171
C         -5.01819       -1.81197       -0.16868
O         -5.85035       -2.70262       -0.18529
C         -3.59562       -2.08276        0.17625
C         -3.12919       -3.32694        0.48686
H         -3.70637       -4.24102        0.51842
S         -1.45816       -3.30239        0.85110
H          4.18399        0.85595        0.92680
H          3.98861       -1.64137       -0.84874
H         -3.93946        4.96788       -1.08694
H         -5.43238        4.40121       -0.28708
H         -5.22260        4.19748       -2.06003
H         -9.64302       -0.68093       -1.14778
H         -8.81310        0.55331       -2.13575
H         -9.09159        0.83596       -0.38355
