26
COMP54_100300.log	Energy: -1597427.5368999
C         -0.15688        0.51847       -0.00039
C         -1.56229        0.17432       -0.00038
C         -2.08330       -1.09606       -0.00047
F         -1.32980       -2.19395       -0.00060
C         -3.49471       -1.14441        0.00013
S         -4.70096       -2.38578       -0.00060
C         -5.95710       -1.18143        0.00050
H         -6.99836       -1.46937        0.00076
C         -5.46331        0.08370        0.00083
F         -6.20677        1.18557        0.00116
C         -4.04117        0.12256        0.00056
S         -2.85337        1.37475       -0.00001
C          0.45222        1.76334       -0.00014
C         -0.23489        3.01760       -0.00043
N         -0.79622        4.03191       -0.00055
N          1.82006        1.77347       -0.00010
C          2.27962        0.55963       -0.00001
S          1.08351       -0.69929       -0.00027
C          3.70000        0.24583        0.00006
S          4.90029        1.50692       -0.00014
C          6.11143        0.29547        0.00044
H          7.16556        0.53370        0.00065
C          5.53452       -0.94632        0.00050
C          6.27725       -2.17214        0.00055
N          6.90196       -3.14729        0.00032
N          4.16307       -0.96923        0.00025
