54
COMP82_340000.log	Energy: -1501203.1950846
C          0.52515       -0.52130       -0.05529
C          1.97891       -0.69839       -0.13503
C          2.69180       -1.84219       -0.43774
C          2.15212       -3.11629       -0.77172
N          1.80520       -4.19102       -1.04253
C          4.10756       -1.63837       -0.43736
O          5.02147       -2.59415       -0.71220
C          4.47267       -0.35075       -0.13562
S          3.05093        0.61598        0.16433
C          5.81515        0.18697       -0.05772
S          7.23723       -0.78347       -0.35389
C          8.28566        0.53436       -0.07768
H          9.35733        0.41760       -0.15297
C          7.59770        1.67918        0.22883
C          8.16846        2.95360        0.51121
N          8.54722        4.02359        0.75272
C          6.17951        1.47749        0.24000
O          5.26613        2.43500        0.50992
C         -0.06665        0.69158       -0.42404
C         -1.44432        0.88092       -0.35778
C         -2.26957       -0.15579        0.07580
C         -3.72637       -0.35732        0.20429
C         -3.87596       -1.80408        0.64904
O         -4.88041       -2.43901        0.90870
N         -2.60560       -2.31861        0.77268
C         -2.32627       -3.67873        1.16553
C         -1.65205       -1.37769        0.41743
C         -0.28678       -1.57794        0.38244
C         -4.78457        0.48302        0.02457
C         -4.62668        1.98825       -0.14820
O         -3.61673        2.66794       -0.14898
N         -5.89045        2.51235       -0.25912
C         -6.15833        3.91943       -0.42194
C         -6.85318        1.51035       -0.20916
C         -8.22007        1.67578       -0.34242
C         -9.01704        0.53137       -0.30040
H        -10.09367        0.62909       -0.40228
C         -8.44375       -0.72514       -0.13818
C         -7.06379       -0.87485        0.00012
C         -6.24138        0.25277       -0.02142
H          4.58013       -3.43049       -0.91834
H          5.70714        3.27533        0.69895
H          0.55355        1.50214       -0.79401
H         -1.87088        1.83104       -0.63759
H         -3.28295       -4.17767        1.32178
H         -1.74922       -3.70111        2.09600
H         -1.76397       -4.19638        0.38113
H          0.14013       -2.52417        0.69378
H         -5.20091        4.44070       -0.40127
H         -6.79153        4.28665        0.39246
H         -6.65720        4.10951       -1.37841
H         -8.65657        2.65923       -0.48194
H         -9.07465       -1.60780       -0.11415
H         -6.63299       -1.85383        0.13864
