33
COMP27_240200.log	Energy: -2452390.2193910
C          2.83979        0.12194        0.07919
C          1.46808       -0.36124        0.28912
C          1.06546       -1.57805        0.80064
O          1.84243       -2.57023        1.26554
C         -0.35639       -1.70754        0.83533
Cl        -1.11022       -3.12747        1.46624
C         -1.03723       -0.63347        0.32375
S          0.08248        0.57382       -0.21621
C         -2.47471       -0.48594        0.21083
C         -3.09703        0.64259       -0.17530
C         -4.52579        0.85358       -0.32093
C         -5.61119        0.01112       -0.29299
Cl        -5.56560       -1.71241       -0.07472
C         -6.87209        0.65982       -0.48806
O         -8.06563        0.03261       -0.50199
C         -6.73125        2.00430       -0.66538
H         -7.51890        2.72418       -0.82996
S         -5.07906        2.47811       -0.59837
C          3.81912       -0.75647       -0.50609
N          3.62193       -2.04121       -0.80847
S          5.01568       -2.60386       -1.43973
N          5.91644       -1.25856       -1.35874
C          5.14676       -0.31253       -0.81940
C          5.54215        1.02040       -0.54316
H          6.53949        1.36173       -0.78948
C          4.63058        1.83605        0.05329
Cl         5.11449        3.46068        0.42431
C          3.29190        1.39329        0.38118
Cl         2.26592        2.51691        1.20861
H          2.58508       -2.68046        0.64302
H         -3.04218       -1.37049        0.47636
H         -2.49255        1.52105       -0.39931
H         -7.92654       -0.91379       -0.35694
