60
COMP87_340002.log	Energy: -1644039.7033463
C          0.04353       -0.53488       -0.28690
C         -1.41410       -0.69326       -0.32435
C         -2.12012       -1.82583       -0.65023
O         -1.61935       -3.02134       -1.01937
C         -3.53715       -1.64591       -0.59849
C         -4.44095       -2.69918       -0.91550
N         -5.19020       -3.54790       -1.16928
C         -3.90598       -0.36022       -0.23440
S         -2.50110        0.60879        0.03747
C         -5.20305        0.26361       -0.05431
C         -6.39737       -0.35035       -0.16982
C         -7.68868        0.28451        0.01192
C         -8.04124        1.57238        0.38855
C         -7.15430        2.63355        0.71512
N         -6.50038        3.55198        0.99576
C         -9.46133        1.77943        0.44118
O        -10.05257        2.94201        0.78091
C        -10.16261        0.65757        0.10823
H        -11.23601        0.54800        0.06927
S         -9.11151       -0.65002       -0.26868
C          0.66333        0.61345       -0.79466
C          2.04703        0.76733       -0.78011
C          2.85263       -0.24239       -0.25165
C          4.30670       -0.46853       -0.12652
C          4.44139       -1.90404        0.35568
O          5.40944       -2.61864        0.49212
N          3.15637       -2.28690        0.70484
O          2.83733       -3.60539        0.89276
C          3.03814       -3.97095        2.26011
C          2.20382       -1.39173        0.23881
C          0.83581       -1.56541        0.24727
C          5.37176        0.36963       -0.25699
C          5.21779        1.87708       -0.41660
O          4.24781        2.55832       -0.67060
N          6.46722        2.39436       -0.14227
O          6.78538        3.68409       -0.47442
C          6.47173        4.56332        0.60669
C          7.44821        1.40592       -0.11173
C          8.81460        1.59041       -0.05997
C          9.60900        0.44363       -0.05548
H         10.68928        0.54620       -0.01703
C          9.03332       -0.82280       -0.11262
C          7.64928       -0.98517       -0.16679
C          6.82612        0.14266       -0.15283
H         -0.66818       -2.93598       -1.17735
H         -5.16548        1.32076        0.19369
H         -6.43851       -1.40583       -0.42129
H         -9.37993        3.60945        0.97601
H          0.05407        1.39612       -1.23605
H          2.49580        1.65981       -1.18794
H          2.72327       -5.01357        2.32011
H          2.42199       -3.35105        2.91978
H          4.09468       -3.88152        2.52500
H          0.40036       -2.45366        0.69293
H          6.80242        5.54722        0.27088
H          7.01300        4.27153        1.51295
H          5.39410        4.57258        0.79039
H          9.23841        2.58768       -0.04380
H          9.66784       -1.70300       -0.12273
H          7.21529       -1.97134       -0.22174
