29
COMP41_000011.log	Energy: -1263415.5813739
C         -1.94383        0.66536        0.03412
C         -0.52313        0.35687        0.01873
C          0.48817        1.26533       -0.08104
H          0.32769        2.33336       -0.18493
C          1.79415        0.67743       -0.04524
C          3.03709        1.31209       -0.12391
H          3.10195        2.39092       -0.22688
C          4.17230        0.52020       -0.06675
S          5.83523        1.06459       -0.13990
C          6.40837       -0.57540        0.00563
H          7.47403       -0.76278        0.00927
C          5.41794       -1.48816        0.10414
H          5.58898       -2.55371        0.20278
C          4.10382       -0.89372        0.06585
C          2.86175       -1.52500        0.14112
H          2.79541       -2.60399        0.24158
C          1.72315       -0.73335        0.08595
S          0.06982       -1.29425        0.15009
C         -3.06018       -0.12824       -0.01568
C         -3.38710       -1.57700       -0.10307
O         -2.67095       -2.54879       -0.13599
N         -4.78818       -1.61386       -0.13605
H         -5.30104       -2.48273       -0.18491
C         -5.41770       -0.36525       -0.06540
O         -6.60803       -0.17121       -0.06997
C         -4.28470        0.59389        0.01044
C         -4.13726        1.93780        0.08702
H         -4.89567        2.70748        0.11993
S         -2.45876        2.34036        0.13428
