28
COMP73_000011.log	Energy: -979573.7877445
C         -1.41349        0.74832        0.04221
C         -2.62092       -0.10071        0.00838
C         -2.80035       -1.12555        0.94286
C         -3.96292       -1.88416        0.93378
H         -4.09127       -2.67640        1.66483
C         -4.95995       -1.63132       -0.00607
H         -5.86735       -2.22783       -0.01136
C         -4.78968       -0.61307       -0.93822
C         -3.62787        0.15192       -0.92899
H         -3.49203        0.93833       -1.66643
C         -0.07196        0.43268        0.05686
C          0.51155       -0.93189       -0.04059
O         -0.14471       -1.95631       -0.09370
C          1.99711       -0.96210       -0.07354
C          2.73271       -2.10857       -0.16638
H          2.35272       -3.11865       -0.23443
S          4.41837       -1.77381       -0.16723
C          4.15342       -0.08080       -0.04052
H          4.97321        0.62333       -0.00301
C          2.82016        0.20975       -0.00099
C          2.25053        1.57067        0.09846
O          2.93432        2.57674        0.16180
C          0.76713        1.60461        0.10267
C          0.05871        2.76857        0.12560
H          0.46744        3.76923        0.15779
S         -1.62721        2.47237        0.09597
H         -2.02407       -1.32556        1.67224
H         -5.55919       -0.41296       -1.67743
