38
COMP51_400200.log	Energy: -2174075.8963893
C         -1.07279        0.58706       -0.21326
C          0.36821        0.41125       -0.07425
C          1.12421       -0.46931       -0.78426
O          0.64935       -1.29643       -1.74259
C          2.53229       -0.45244       -0.43758
C          3.58946       -1.21771       -0.95136
C          3.45308       -2.26516       -2.02487
C          4.84329       -0.95513       -0.40355
S          6.30643       -1.78552       -0.89468
C          7.24346       -0.85615        0.24228
H          8.30969       -1.02204        0.32729
C          6.50235        0.02699        0.94950
O          6.97274        0.87428        1.90338
C          5.08927        0.00963        0.60639
C          4.03116        0.77482        1.11877
C          4.16631        1.82517        2.18982
C          2.77581        0.50989        0.57464
S          1.31655        1.34008        1.07545
C         -1.77530        1.57246       -0.86247
Cl        -1.02784        2.87942       -1.70288
N         -3.12950        1.49354       -0.84126
C         -3.50251        0.43869       -0.16839
S         -2.22163       -0.51811        0.49222
C         -4.89852        0.07161        0.01403
S         -6.17943        1.04158       -0.64014
C         -7.30631       -0.07610        0.02062
H         -8.37348        0.04528       -0.09044
C         -6.63359       -1.07360        0.66261
Cl        -7.40113       -2.40152        1.45821
N         -5.27670       -0.99473        0.66286
H         -0.29186       -1.11385       -1.87390
H          2.41553       -2.44731       -2.29424
H          3.89476       -3.21080       -1.68784
H          3.99475       -1.95726       -2.92793
H          7.92538        0.74914        1.98932
H          5.20436        2.00730        2.45734
H          3.62506        1.52012        3.09429
H          3.72494        2.77037        1.85050
