32
COMP37_140000.log	Energy: -1354560.5725789
C          3.27644        0.11396        0.01154
C          1.86075       -0.25554       -0.07694
C          1.32089       -1.47729       -0.41883
O          1.94785       -2.61204       -0.78211
C         -0.10112       -1.44831       -0.41773
F         -0.79944       -2.54154       -0.73363
C         -0.66325       -0.25095       -0.07495
S          0.59465        0.89866        0.25419
C         -2.05417        0.14395        0.04534
C         -3.10425       -0.67532       -0.15681
C         -4.49516       -0.28240       -0.03776
C         -5.06467        0.91552        0.29065
F         -4.38378        2.03981        0.58738
C         -6.48746        0.93845        0.31023
O         -7.21375        2.03849        0.61398
C         -7.01006       -0.27768       -0.01274
H         -8.05424       -0.54453       -0.07720
S         -5.76716       -1.43223       -0.33654
C          3.75546        1.35301       -0.43466
F          2.91548        2.24678       -0.95815
C          5.09961        1.69084       -0.35150
F          5.48738        2.88533       -0.79565
C          6.03244        0.80844        0.16689
H          7.08074        1.07337        0.22380
C          5.58311       -0.42241        0.61099
F          6.43716       -1.30637        1.12543
C          4.23756       -0.75038        0.54427
F          3.86544       -1.95917        1.01614
H          2.80399       -2.66210       -0.33561
H         -2.22995        1.18001        0.31747
H         -2.92760       -1.71086       -0.42885
H         -6.60243        2.76279        0.80144
