34
COMP67_420001.log	Energy: -1720146.6953186
C         -3.30796       -0.55544       -0.32275
C         -2.00485        0.06266       -0.23697
C         -1.66736        1.39113       -0.27337
Cl        -2.75298        2.70482       -0.53170
C         -0.26544        1.62696       -0.15869
O          0.31595        2.84137       -0.18270
C          0.46654        0.46917       -0.04408
S         -0.57775       -0.92003       -0.07551
C          1.90380        0.40294        0.10987
C          2.63711       -0.72436        0.20796
C          4.08549       -0.75602        0.30990
C          4.99580        0.11751       -0.23976
O          4.73152        1.18605       -1.01846
C          6.34712       -0.23455        0.06727
Cl         7.69309        0.69242       -0.49361
C          6.45121       -1.35981        0.82340
H          7.35723       -1.82284        1.18640
S          4.90612       -2.02616        1.17809
C         -4.51562       -0.19251        0.20398
C         -5.15252        0.75569        1.12202
O         -4.75714        1.73169        1.72257
N         -6.47921        0.25133        1.20254
H         -7.18067        0.69618        1.77367
C         -6.65060       -0.90260        0.46992
H         -7.59750       -1.42523        0.46810
C         -5.48176       -1.19635       -0.15368
C         -4.82197       -2.22198       -0.96206
O         -5.21611       -3.22274       -1.51763
N         -3.47609       -1.76713       -0.98507
H         -2.79546       -2.17591       -1.60868
H         -0.37058        3.52365       -0.20130
H          2.38302        1.37607        0.19559
H          2.13390       -1.69150        0.20660
H          3.81367        1.13033       -1.32159
