40
COMP51_300220.log	Energy: -2289776.9394025
C         -1.40230       -0.64908        0.28858
C          0.03505       -0.41548        0.19465
C          0.71441        0.71056        0.58284
C          0.06666        1.81549        1.21377
N         -0.48273        2.71092        1.70472
C          2.13350        0.63863        0.31042
C          3.13607        1.58148        0.56370
O          2.87471        2.77151        1.16741
C          2.50497        3.82527        0.27703
C          4.43721        1.23878        0.21577
S          5.83964        2.25371        0.45591
C          6.85970        1.05349       -0.25221
H          7.92265        1.23206       -0.34596
C          6.19968       -0.07025       -0.64593
C          6.87299       -1.17874       -1.24423
N          7.44523       -2.07407       -1.70800
C          4.77554        0.00137       -0.38031
C          3.77385       -0.94107       -0.63153
O          4.03410       -2.13226       -1.23436
C          4.39878       -3.18621       -0.34147
C          2.47169       -0.59712       -0.28679
S          1.07539       -1.61041       -0.53402
C         -2.08260       -1.69402        0.86628
Cl        -1.33331       -3.00916        1.69386
N         -3.43465       -1.66057        0.79612
C         -3.82109       -0.58925        0.15753
S         -2.55764        0.44999       -0.39721
C         -5.21912       -0.26692       -0.07980
S         -6.49580       -1.28791        0.49897
C         -7.62615       -0.19412       -0.19282
H         -8.69298       -0.34849       -0.12841
C         -6.95823        0.83262       -0.79345
Cl        -7.73151        2.14469       -1.60732
N         -5.60123        0.79561       -0.73270
H          2.27005        4.68210        0.90773
H          1.61923        3.55473       -0.30719
H          3.33192        4.07049       -0.39965
H          4.61678       -4.04928       -0.96977
H          3.57511       -3.41823        0.34379
H          5.29349       -2.92333        0.23226
