48
COMP91_200010.log	Energy: -1960809.3005578
C          0.94247       -0.13254       -0.08453
C         -0.53766       -0.13360       -0.06980
C         -1.34681       -0.32227        0.99560
Cl        -0.76095       -0.49147        2.61754
C         -2.75417       -0.34143        0.68002
C         -3.84079       -0.50026        1.53640
H         -3.68921       -0.62894        2.60301
C         -5.10867       -0.48694        0.97348
S         -6.62892       -0.66534        1.82498
C         -7.52046       -0.51881        0.33774
H         -8.60034       -0.57113        0.34129
C         -6.71938       -0.34529       -0.73435
Cl        -7.30650       -0.16763       -2.35593
C         -5.31068       -0.31956       -0.41874
C         -4.22251       -0.16072       -1.27527
H         -4.37378       -0.03026       -2.34170
C         -2.95656       -0.17265       -0.71179
S         -1.43837        0.00000       -1.56451
C          1.57324       -1.39885       -0.13776
C          2.94043       -1.51439       -0.16652
C          3.56081       -2.86698       -0.22223
O          2.89036       -3.87929       -0.24395
N          4.95754       -2.91025       -0.24738
C          5.61491       -4.21489       -0.29934
C          5.79960       -1.79656       -0.24813
O          7.00574       -1.93540       -0.29487
C          5.15418       -0.45823       -0.18712
C          5.93299        0.67623       -0.17049
H          7.01222        0.57307       -0.20274
C          5.32697        1.94438       -0.11146
C          3.95533        2.06393       -0.07269
C          3.35338        3.42090       -0.00824
O          4.03417        4.42737        0.00951
N          1.96061        3.47569        0.03069
C          1.31760        4.78669        0.10837
C          1.09923        2.37495        0.03366
O         -0.09904        2.55355        0.10663
C          1.71798        1.01865       -0.05783
C          3.13186        0.91328       -0.09175
C          3.74586       -0.35655       -0.14907
H          0.96685       -2.29839       -0.15481
H          4.84847       -4.97937       -0.19717
H          6.34308       -4.28718        0.50985
H          6.13823       -4.33006       -1.25110
H          5.92679        2.84784       -0.09613
H          2.09329        5.54293        0.01610
H          0.79913        4.89056        1.06390
H          0.58684        4.88228       -0.69607
