40
COMP46_000001.log	Energy: -886271.1853193
C         -2.06773        0.92082        0.07226
C         -0.60236        0.95596        0.00332
C          0.13417       -0.22316        0.19656
C          1.51294       -0.17874        0.12324
C          2.49296       -1.32977        0.28262
C          2.39125       -1.95915        1.68176
C          2.26659       -2.39820       -0.80120
C          3.82048       -0.61259        0.08837
C          5.10178       -1.14173        0.11958
C          6.18908       -0.29342       -0.09075
H          7.19745       -0.69615       -0.06888
C          5.99375        1.06757       -0.32926
C          4.70894        1.60366       -0.36189
C          3.62634        0.75535       -0.15157
C          2.18372        1.02486       -0.13056
C          1.46464        2.20045       -0.32138
C          0.07781        2.15716       -0.25720
C         -2.95883       -0.11717       -0.04899
C         -2.93653       -1.58423       -0.30851
O         -2.01966       -2.36327       -0.44427
N         -4.28733       -1.94982       -0.35686
H         -4.57792       -2.90495       -0.50998
C         -5.19514       -0.90711       -0.13554
O         -6.39725       -1.00832       -0.12113
C         -4.32227        0.27769        0.06067
C         -4.50664        1.60120        0.27948
H         -5.43015        2.15065        0.39726
S         -2.97496        2.39327        0.36344
H         -0.38015       -1.16043        0.37757
H          1.40738       -2.41906        1.82428
H          2.53834       -1.20571        2.46169
H          3.15078       -2.73867        1.80757
H          1.27175       -2.84464       -0.69826
H          3.01269       -3.19579       -0.71352
H          2.34665       -1.96034       -1.80071
H          5.26160       -2.20116        0.30327
H          6.85135        1.71365       -0.49155
H          4.55920        2.66362       -0.54792
H          1.96901        3.13990       -0.52755
H         -0.48186        3.07172       -0.43305
