38
COMP47_430000.log	Energy: -1498897.4635551
C         -3.08047        0.70441        0.08616
C         -1.64853        0.94188        0.04458
C         -0.97410        2.15275        0.14434
C         -1.53589        3.44965        0.30926
N         -1.87040        4.55370        0.44422
C          0.44559        2.02494        0.06779
O          1.30550        3.06071        0.14039
C          0.85725        0.72197       -0.09054
S         -0.51204       -0.34377       -0.14856
C          2.19463        0.17082       -0.19773
C          3.33853        0.88750       -0.22487
C          4.66047        0.28114       -0.25729
C          5.08397       -0.86756        0.36955
O          4.35369       -1.67657        1.16234
C          6.46974       -1.15398        0.14026
C          7.14601       -2.28618        0.68561
N          7.70621       -3.20082        1.12466
C          7.07206       -0.20841       -0.64707
H          8.10362       -0.19477       -0.96928
S          5.98567        1.02738       -1.10975
C         -3.79133       -0.46587       -0.03065
C         -3.51994       -1.91214       -0.23823
O         -2.46584       -2.49415       -0.36795
N         -4.77813       -2.52319       -0.25733
C         -4.97429       -3.94594       -0.43850
C         -5.84274       -1.62923       -0.08289
O         -7.00943       -1.93712       -0.06530
C         -5.19458       -0.30121        0.06398
C         -5.59049        0.98063        0.25488
H         -6.58985        1.38019        0.35969
S         -4.21895        2.02193        0.32090
H          0.82064        3.88850        0.27453
H          2.24910       -0.91249       -0.30032
H          3.28803        1.97221       -0.20826
H          3.53554       -1.21878        1.40600
H         -3.99079       -4.40448       -0.54545
H         -5.57152       -4.13289       -1.33415
H         -5.49022       -4.36806        0.42718
