37
COMP47_100003.log	Energy: -1531592.4264855
C          1.67789        1.31098       -0.00988
C          0.37042        0.69085       -0.03516
C          0.08876       -0.65148       -0.12002
H          0.84405       -1.42527       -0.18417
C         -1.29903       -0.89023       -0.11318
F         -1.79027       -2.13235       -0.18700
C         -2.10208        0.22273       -0.02629
S         -1.09063        1.63239        0.05081
C         -3.54399        0.36344        0.00840
C         -4.41593       -0.66383       -0.03602
C         -5.85937       -0.53244       -0.00129
C         -6.66398        0.57789        0.06700
F         -6.18206        1.82616        0.11655
C         -8.05756        0.32481        0.08095
H         -8.80789        1.10308        0.13143
C         -8.31476       -1.01253        0.02192
H         -9.27941       -1.49996        0.01681
S         -6.87261       -1.94711       -0.04940
C          2.93333        0.74893       -0.02691
C          3.52348       -0.60416       -0.08609
O          2.99374       -1.68267       -0.18927
N          4.93382       -0.38651       -0.04829
C          5.91660       -1.40600       -0.13324
O          6.94116       -1.28866       -0.74712
O          5.53982       -2.46572        0.57165
C          6.42167       -3.58723        0.48615
C          5.28748        0.99716        0.00318
O          6.40023        1.44128        0.06713
C          3.98506        1.69799        0.01465
C          3.57699        2.98899        0.06471
H          4.16847        3.89299        0.10159
S          1.85140        3.05262        0.05742
H         -3.92130        1.37853        0.07739
H         -4.03514       -1.67793       -0.10345
H          5.93434       -4.37990        1.05160
H          7.39195       -3.34047        0.92282
H          6.55907       -3.88514       -0.55556
