58
COMP87_130002.log	Energy: -1674169.9907999
C          0.06598       -0.49686       -0.10164
C         -1.38804       -0.68449       -0.15143
C         -2.08952       -1.84881       -0.40151
C         -1.49559       -3.10991       -0.70193
N         -1.00514       -4.13309       -0.94026
C         -3.49713       -1.64086       -0.38103
F         -4.34110       -2.64601       -0.61063
C         -3.89341       -0.35714       -0.12356
S         -2.47602        0.62696        0.11051
C         -5.21681        0.22839       -0.01757
C         -6.37070       -0.45465       -0.14102
C         -7.69487        0.13129       -0.03277
C         -8.09021        1.42133        0.20017
F         -7.24604        2.43583        0.37981
C         -9.50134        1.62065        0.23969
C        -10.11994        2.88601        0.46658
N        -10.62305        3.91336        0.65058
C        -10.17884        0.44717        0.03060
H        -11.25023        0.30839        0.00733
S         -9.11131       -0.86662       -0.20818
C          0.65921        0.65781       -0.62385
C          2.04158        0.83537       -0.61688
C          2.86464       -0.15555       -0.08242
C          4.32424       -0.36725        0.03837
C          4.47936       -1.79347        0.55279
O          5.46254       -2.48578        0.70575
N          3.19898       -2.20293        0.85396
O          2.89872       -3.45642        1.29216
C          2.81686       -4.37847        0.19482
C          2.23370       -1.31064        0.41994
C          0.87109       -1.50308        0.44913
C          5.37952        0.47548       -0.13556
C          5.20858        1.97388       -0.36404
O          4.22570        2.63664       -0.61879
N          6.46077        2.51193       -0.16046
O          6.75692        3.78892       -0.55305
C          6.47721        4.70774        0.50455
C          7.45081        1.53510       -0.09690
C          8.81593        1.73499       -0.09054
C          9.62227        0.59799       -0.03712
H         10.70211        0.71194       -0.03275
C          9.05778       -0.67401       -0.00018
C          7.67458       -0.85155       -0.00988
C          6.83926        0.26700       -0.04840
H         -5.24648        1.29578        0.17642
H         -6.34128       -1.52233       -0.33324
H          0.03804        1.42212       -1.08063
H          2.47293        1.73138       -1.03484
H          2.56039       -5.33271        0.65500
H          3.78363       -4.45200       -0.31027
H          2.02804       -4.08182       -0.50440
H          0.45717       -2.40376        0.88567
H          6.79585        5.67841        0.12195
H          7.04759        4.44941        1.40306
H          5.40600        4.72363        0.72229
H          9.22906        2.73536       -0.14601
H          9.70035       -1.54782        0.03083
H          7.24913       -1.84249        0.01416
