34
COMP57_310100.log	Energy: -1819056.5586917
C         -2.06162       -0.25189       -0.01201
C         -0.67507        0.15246        0.00571
C         -0.17354        1.42378        0.04959
F         -0.94508        2.50752        0.08634
C          1.24295        1.52093        0.05783
C          1.91664        2.77325        0.11232
N          2.47357        3.78969        0.15390
C          1.84433        0.27290        0.01730
S          0.64654       -0.97682       -0.02685
C          3.23725       -0.12949        0.00861
C          4.29161        0.70812       -0.05064
C          5.68680        0.30890       -0.05443
C          6.29387       -0.93315        0.04938
C          5.62305       -2.17887        0.19933
N          5.06945       -3.19105        0.31971
C          7.71652       -0.83741       -0.00565
F          8.48204       -1.91800        0.07792
C          8.18909        0.42734       -0.14527
H          9.21952        0.74310       -0.20967
S          6.88611        1.54724       -0.21377
C         -2.57350       -1.52395       -0.06632
F         -1.80622       -2.60585       -0.11136
N         -3.90721       -1.67956       -0.07428
C         -4.47801       -0.50410       -0.02516
S         -3.40385        0.85468        0.03291
C         -5.91665       -0.31387       -0.01821
S         -7.01109       -1.65752       -0.07862
C         -8.32118       -0.54275       -0.03005
H         -9.35505       -0.85189       -0.04492
C         -7.82051        0.72331        0.02629
F         -8.56629        1.81463        0.07471
N         -6.47700        0.86545        0.03361
H          3.40279       -1.20199        0.05104
H          4.12531        1.77984       -0.10605
