33
COMP22_330300.log	Energy: -1503056.9499862
C         -2.14627        0.27432       -0.05485
C         -0.74465       -0.08033       -0.33125
C         -0.30682       -1.19734       -1.00359
C         -1.19022       -2.15713       -1.58417
N         -1.92606       -2.91865       -2.05341
C          1.12014       -1.27950       -1.06442
C          1.81635       -2.35223       -1.69880
N          2.38399       -3.21943       -2.21678
C          1.73847       -0.22503       -0.42520
S          0.57609        0.86614        0.23330
C          3.16895        0.03120       -0.29209
S          4.23686       -0.10123       -1.64612
C          5.59225        0.34477       -0.70790
H          6.57719        0.40108       -1.15026
C          5.25917        0.59731        0.59543
C          6.20253        0.98770        1.59447
N          6.97135        1.30571        2.40026
C          3.85667        0.41695        0.83958
C          3.24979        0.59217        2.11999
N          2.74776        0.73674        3.15434
C         -2.96393       -0.63328        0.68929
N         -2.56189       -1.79596        1.20353
S         -3.85952       -2.44449        1.92462
N         -4.96745       -1.29702        1.63771
C         -4.34474       -0.34159        0.94240
C         -4.92325        0.86749        0.47654
H         -5.96611        1.08730        0.67125
C         -4.12700        1.73528       -0.22134
C         -4.68463        2.96631       -0.70658
N         -5.14992        3.95568       -1.08846
C         -2.73704        1.43896       -0.49533
C         -1.97833        2.37453       -1.27644
N         -1.35645        3.12172       -1.90637
