35
COMP47_000002.log	Energy: -1335949.1784561
C         -1.90299        0.92978       -0.05202
C         -0.54285        0.43634       -0.07281
C         -0.13278       -0.87079       -0.21087
H         -0.83602       -1.68878       -0.31913
C          1.27161       -1.01563       -0.19233
H          1.76752       -1.97378       -0.29185
C          1.94816        0.17348       -0.03974
S          0.82848        1.49425        0.08456
C          3.37438        0.44224        0.02840
C          4.32979       -0.50196       -0.03762
C          5.75990       -0.25142        0.02574
C          6.45268        0.92937        0.14922
H          5.97073        1.89752        0.22169
C          7.86200        0.75299        0.17194
H          8.57185        1.56659        0.26265
C          8.23223       -0.55702        0.06535
H          9.23146       -0.96970        0.05584
S          6.86547       -1.59162       -0.06223
C         -3.09406        0.24763       -0.10531
C         -3.55233       -1.15864       -0.18391
O         -2.95353       -2.20650       -0.25435
N         -4.95495       -1.04958       -0.13778
O         -5.75415       -2.12665       -0.35839
C         -6.12749       -2.73766        0.87843
C         -5.46999        0.25766       -0.09632
O         -6.63637        0.55656       -0.07998
C         -4.24148        1.09005       -0.05550
C         -3.96148        2.41118        0.03219
H         -4.64016        3.25090        0.08428
S         -2.24774        2.64635        0.05070
H          3.66293        1.48484        0.14222
H          4.03426       -1.54337       -0.14799
H         -6.75890       -3.57991        0.59332
H         -6.69603       -2.03659        1.49694
H         -5.24160       -3.09729        1.41054
