40
COMP67_030000.log	Energy: -1214043.9823299
C         -2.90588       -0.46689       -0.19542
C         -1.49405       -0.72602        0.04227
C         -0.88071       -1.74091        0.75823
C         -1.58047       -2.76762        1.46297
N         -2.12693       -3.60772        2.04584
C          0.53298       -1.60837        0.81791
H          1.16586       -2.28539        1.37816
C          0.99333       -0.50586        0.14302
S         -0.31988        0.38656       -0.54799
C          2.36343       -0.04795       -0.03760
C          3.43705       -0.84582        0.08389
C          4.81389       -0.38534       -0.02584
C          5.31778        0.88418        0.07755
H          4.71984        1.75825        0.30451
C          6.73147        0.93186       -0.11190
C          7.50332        2.13462       -0.05515
N          8.12281        3.11316       -0.01008
C          7.28282       -0.30313       -0.34456
H          8.32514       -0.53488       -0.51213
S          6.08906       -1.52778       -0.34141
C         -3.55777        0.73102       -0.09161
C         -3.38244        2.11947        0.32438
O         -2.41234        2.77082        0.65829
N         -4.70555        2.64540        0.24391
C         -5.01279        4.02524        0.54872
C         -5.60053        1.68518       -0.17207
H         -6.65237        1.92219       -0.26843
C         -4.94075        0.51806       -0.39144
C         -5.12615       -0.88528       -0.73735
O         -6.08514       -1.52860       -1.10549
N         -3.81680       -1.43935       -0.58300
C         -3.54550       -2.79971       -1.00634
H          2.49948        1.00088       -0.29194
H          3.29169       -1.90881        0.26543
H         -4.08577        4.49201        0.88576
H         -5.75944        4.09058        1.34563
H         -5.37845        4.55226       -0.33794
H         -4.29479       -3.06211       -1.75533
H         -3.61914       -3.50156       -0.17270
H         -2.54804       -2.86251       -1.44769
