54
COMP82_420002.log	Energy: -2056537.1214896
C          0.59469        0.32760       -0.44542
C          2.05975        0.38915       -0.50585
C          2.83002        1.46629       -0.86834
O          2.40243        2.68103       -1.27342
C          4.22911        1.18639       -0.80370
Cl         5.41680        2.37433       -1.19365
C          4.51477       -0.08833       -0.40075
S          3.05609       -0.97477       -0.10116
C          5.82584       -0.70814       -0.22125
S          6.77146       -1.22710       -1.57900
C          8.04048       -1.79472       -0.55641
H          8.93172       -2.23672       -0.98075
C          7.75413       -1.60020        0.76297
O          8.50913       -1.91653        1.83792
C          6.47912       -0.97698        0.94914
Cl         5.86777       -0.59720        2.51662
C         -0.10561       -0.79718       -0.89879
C         -1.49530       -0.86595       -0.85153
C         -2.22682        0.20927       -0.34397
C         -3.66126        0.52544       -0.19006
C         -3.69746        1.98437        0.23911
O         -4.61705        2.76229        0.36483
N         -2.38442        2.30074        0.54532
O         -1.98328        3.60486        0.66647
C         -2.10703        4.03459        2.02367
C         -1.49833        1.33320        0.08948
C         -0.12271        1.42329        0.06415
C         -4.77741       -0.25153       -0.25913
C         -4.71624       -1.76834       -0.38254
O         -3.80109       -2.51207       -0.66276
N         -5.97984       -2.20636       -0.03908
O         -6.38504       -3.48155       -0.33298
C         -6.08588       -4.35606        0.75530
C         -6.90166       -1.16256       -0.00273
C         -8.27293       -1.26892        0.10873
C         -9.00260       -0.08022        0.10950
H        -10.08440       -0.12071        0.19411
C         -8.36085        1.14954       -0.00849
C         -6.97311        1.23261       -0.12240
C         -6.21279        0.06159       -0.10761
H          1.44914        2.64134       -1.43429
H          9.33629       -2.31214        1.53900
H          0.44563       -1.63093       -1.32230
H         -2.00589       -1.74276       -1.21837
H         -1.72335        5.05573        2.02928
H         -1.50607        3.40203        2.68532
H         -3.15589        4.02517        2.33149
H          0.37545        2.29847        0.46774
H         -6.49112       -5.32365        0.45564
H         -6.57215       -4.01111        1.67394
H         -5.00484       -4.43101        0.89990
H         -8.74897       -2.24029        0.17352
H         -8.94516        2.06385       -0.02005
H         -6.48924        2.19139       -0.22465
