33
COMP27_420200.log	Energy: -2452389.2939400
C          2.83323        0.07529       -0.07194
C          1.45405       -0.10928        0.40786
C          1.04622       -0.78351        1.51878
Cl         2.11228       -1.53065        2.66303
C         -0.37129       -0.82964        1.68324
O         -1.01248       -1.43161        2.70513
C         -1.03831       -0.17991        0.67421
S          0.08840        0.47323       -0.48065
C         -2.47628       -0.04464        0.56979
C         -3.13828        0.67744       -0.35578
C         -4.58694        0.72112       -0.47283
C         -5.48303       -0.29682       -0.24369
O         -5.19864       -1.56261        0.12436
C         -6.83659        0.10059       -0.47774
Cl        -8.16612       -0.98367       -0.26713
C         -6.95544        1.39187       -0.88572
H         -7.86658        1.92303       -1.11984
S         -5.41993        2.15876       -1.00181
C          3.47675       -0.99751       -0.76839
N          2.93259       -2.18398       -1.03750
S          4.06805       -3.03176       -1.83367
N          5.27798       -1.94613       -1.87280
C          4.82088       -0.85997       -1.24762
C          5.53357        0.35131       -1.03952
H          6.54729        0.45893       -1.40536
C          4.90845        1.36186       -0.37304
Cl         5.77348        2.84298       -0.11223
C          3.55495        1.22739        0.11889
Cl         2.83972        2.54627        0.98129
H         -0.36165       -1.83106        3.29915
H         -3.02827       -0.55794        1.35535
H         -2.57451        1.26601       -1.07996
H         -4.24626       -1.70544        0.02136
