35
COMP27_430100.log	Energy: -1539059.1848687
C         -2.94892       -0.48185       -0.22772
C         -1.60386        0.09676       -0.27836
C         -1.26714        1.39543       -0.59527
C         -2.15915        2.41362       -1.03874
N         -2.79398        3.30139       -1.43232
C          0.13889        1.64496       -0.50419
O          0.72964        2.82411       -0.77746
C          0.86000        0.54261       -0.11278
S         -0.20025       -0.81284        0.13312
C          2.29562        0.50157        0.06809
C          3.01906       -0.56502        0.46114
C          4.47153       -0.56573        0.55528
C          5.36996        0.06132       -0.27554
O          5.08988        0.80060       -1.36585
C          6.73468       -0.16661        0.10062
C          7.85368        0.37267       -0.60193
N          8.77124        0.80280       -1.16420
C          6.84197       -0.97234        1.20314
H          7.75435       -1.29057        1.68711
S          5.31332       -1.46122        1.79207
C         -4.02135        0.18406        0.46195
N         -3.91654        1.32379        1.13790
S         -5.39741        1.64991        1.72422
N         -6.22060        0.36357        1.16485
C         -5.34797       -0.37522        0.48230
C         -5.62815       -1.61180       -0.16719
H         -6.61978       -2.04628       -0.15753
C         -4.59281       -2.22435       -0.79135
F         -4.75274       -3.38355       -1.42381
C         -3.27120       -1.66884       -0.82345
F         -2.35986       -2.37482       -1.48720
H          0.06393        3.47956       -1.03029
H          2.78914        1.45643       -0.10474
H          2.51401       -1.49763        0.71286
H          4.15517        0.68435       -1.59196
