36
COMP77_200001.log	Energy: -2152413.7834757
C         -1.75517       -0.85557       -0.57923
C         -0.50375       -0.11187       -0.51931
C         -0.25018        1.20477       -0.79529
H         -1.01323        1.92128       -1.05797
C          1.12590        1.51906       -0.68293
Cl         1.71744        3.12157       -0.98529
C          1.93853        0.46953       -0.32064
S          0.96924       -0.95530       -0.10680
C          3.37184        0.49868       -0.11786
C          4.11262       -0.56088        0.25619
C          5.54811       -0.60382        0.47387
C          6.57079        0.29117        0.25215
Cl         6.38049        1.87602       -0.42913
C          7.86200       -0.18492        0.61435
H          8.76539        0.40017        0.49776
C          7.81882       -1.44999        1.11394
H          8.64507       -2.05165        1.46574
S          6.21585       -2.06710        1.14634
C         -3.06443       -0.49755       -0.30515
C         -3.55476        0.82504        0.15865
O         -2.85952        1.82197        0.25693
C         -4.99880        0.86468        0.50123
C         -5.63232        1.97112        0.99060
H         -5.18678        2.93356        1.20128
S         -7.30412        1.67267        1.25129
C         -7.17360        0.05201        0.69669
H         -8.02815       -0.60981        0.66360
C         -5.89179       -0.24302        0.33120
C         -5.43155       -1.54604       -0.18690
O         -6.17031       -2.50043       -0.35285
C         -3.97434       -1.60474       -0.46665
C         -3.36132       -2.75308       -0.86598
H         -3.83688       -3.70760       -1.04496
S         -1.67799       -2.53018       -1.06266
H          3.83295        1.46462       -0.28719
H          3.60811       -1.51097        0.42999
