37
COMP21_100300.log	Energy: -1493284.6821992
C          2.27672        0.03837        0.08732
C          0.81628       -0.04975        0.08431
C         -0.04122        0.83183       -0.48835
F          0.39433        1.88768       -1.17819
C         -1.44176        0.53915       -0.33033
C         -2.56525        1.24622       -0.78329
C         -2.51328        2.52934       -1.56834
C         -3.79369        0.68088       -0.45385
S         -5.34146        1.37203       -0.90696
C         -6.18897        0.07581       -0.11832
H         -7.26864        0.03457       -0.11132
C         -5.34957       -0.81272        0.44611
F         -5.78781       -1.89205        1.10627
C         -3.94264       -0.51984        0.28744
C         -2.81898       -1.22239        0.74307
C         -2.86984       -2.49803        1.54069
C         -1.58938       -0.65904        0.41162
S         -0.04988       -1.36013        0.86288
C          3.08604       -1.07313       -0.32586
N          2.62796       -2.25876       -0.72839
S          3.92979       -3.15561       -1.09242
N          5.11809       -2.09778       -0.76957
C          4.51936       -0.98080       -0.35211
C          5.17464        0.21936        0.03017
H          6.25514        0.29014        0.00068
C          4.39664        1.26894        0.43235
C          5.03577        2.49200        0.83169
N          5.57739        3.46606        1.14685
C          2.95091        1.17920        0.47693
C          2.22736        2.31064        0.98121
N          1.65914        3.22412        1.41074
H         -1.49694        2.88908       -1.71013
H         -3.08057        3.31263       -1.05185
H         -2.96994        2.39164       -2.55593
H         -3.88955       -2.83381        1.71409
H         -2.38571       -2.35920        2.51502
H         -2.33064       -3.29797        1.01854
