39
COMP25_000130.log	Energy: -1054785.7363045
C          2.13826        0.00810       -0.35144
C          0.73255       -0.45979       -0.38559
C         -0.29033        0.41797       -0.01743
C         -1.60187       -0.04135       -0.05907
N         -2.81924        0.60954        0.25778
C         -3.02179        1.91305        0.68204
O         -4.10573        2.39258        0.92151
O         -1.86754        2.58044        0.79653
C         -1.99992        3.93721        1.22252
C         -3.87738       -0.30693        0.04981
C         -5.25057       -0.14496        0.22114
C         -6.06303       -1.23619       -0.06717
H         -7.13653       -1.13393        0.05914
C         -5.53526       -2.45317       -0.51226
C         -4.16618       -2.60399       -0.67795
C         -3.33439       -1.52278       -0.39381
C         -1.89708       -1.35502       -0.46126
C         -0.87047       -2.22158       -0.82647
C          0.43899       -1.77357       -0.78566
C          3.19805       -0.78003        0.22402
N          3.05495       -1.98031        0.78225
S          4.53099       -2.43996        1.28960
N          5.40951       -1.14698        0.83374
C          4.55999       -0.30066        0.25557
C          4.89974        0.97162       -0.28721
H          5.91552        1.34519       -0.26955
C          3.88322        1.68927       -0.82157
F          4.09486        2.89054       -1.35706
C          2.52854        1.21634       -0.85478
F          1.65441        2.04483       -1.43067
H         -0.06124        1.42463        0.29445
H         -0.98358        4.32749        1.26036
H         -2.46738        3.98516        2.20821
H         -2.60236        4.50477        0.51020
H         -5.66425        0.79226        0.56405
H         -6.20205       -3.28186       -0.72904
H         -3.74661       -3.54426       -1.02324
H         -1.09333       -3.23745       -1.13787
H          1.24584       -2.44199       -1.06215
