62
COMP85_000030.log	Energy: -1065480.3959728
C          0.64490       -0.77529       -0.24171
C          2.11885       -0.92703       -0.31699
C          2.93623        0.16021        0.00431
C          4.31571        0.00438       -0.07847
N          5.36612        0.91761        0.18429
C          5.28589        2.24151        0.58574
O          6.24287        2.95321        0.78627
O          4.01628        2.63955        0.72612
C          3.85478        3.99445        1.14800
C          6.59619        0.25560       -0.04486
C          7.90253        0.72497        0.07385
C          8.93023       -0.16480       -0.22019
H          9.95708        0.17749       -0.13366
C          8.67529       -1.48084       -0.62025
C          7.37007       -1.93757       -0.73597
C          6.32580       -1.06206       -0.44630
C          4.88545       -1.22029       -0.46761
C          4.06589       -2.30029       -0.78490
C          2.69082       -2.14905       -0.70895
C          0.02503        0.40114       -0.67437
C         -1.35352        0.57921       -0.59756
C         -2.15719       -0.43491       -0.07675
C         -3.60647       -0.63671        0.10177
C         -3.73502       -2.05823        0.62955
O         -4.72893       -2.68509        0.94621
N         -2.45799       -2.55297        0.75742
C         -2.16113       -3.87563        1.24651
C         -1.51799       -1.62697        0.32167
C         -0.15058       -1.81452        0.26082
C         -4.67450        0.19141       -0.07664
C         -4.53054        1.68943       -0.29768
O         -3.52621        2.37514       -0.35802
N         -5.80220        2.20609       -0.36851
C         -6.08299        3.60716       -0.55472
C         -6.75703        1.20174       -0.25853
C         -8.12921        1.35657       -0.34591
C         -8.91699        0.20903       -0.25082
H         -9.99732        0.29833       -0.31559
C         -8.32969       -1.04039       -0.08396
C         -6.94441       -1.17891        0.00809
C         -6.13108       -0.04749       -0.06424
H          2.49541        1.08983        0.33168
H          2.77906        4.14044        1.23766
H          4.27514        4.67875        0.40784
H          4.34604        4.15642        2.10965
H          8.10466        1.74050        0.38211
H          9.50329       -2.14702       -0.84169
H          7.16281       -2.95782       -1.04525
H          4.50057       -3.24512       -1.09722
H          2.04250       -2.97600       -0.98260
H          0.63144        1.19288       -1.10306
H         -1.79723        1.50305       -0.93337
H         -3.10905       -4.35786        1.48681
H         -1.53985       -3.82409        2.14696
H         -1.63712       -4.46102        0.48299
H          0.30197       -2.73439        0.61722
H         -5.12775        4.13241       -0.57916
H         -6.68980        3.99084        0.27221
H         -6.61493        3.77409       -1.49780
H         -8.57638        2.33444       -0.49132
H         -8.95330       -1.92629       -0.01999
H         -6.50267       -2.15243        0.15085
