44
COMP51_300130.log	Energy: -1979718.2284209
C          2.02976       -0.58471       -0.05605
C          0.59722       -0.37239       -0.02014
C         -0.09786        0.81532       -0.03161
C          0.54341        2.06622       -0.26390
N          1.08537        3.05987       -0.51977
C         -1.53610        0.63785        0.03554
C         -2.55177        1.60297        0.04247
C         -2.24485        3.04824        0.28322
O         -1.48861        3.43106        1.14017
O         -2.94631        3.84928       -0.52380
C         -2.72798        5.25239       -0.32637
C         -3.87338        1.16107       -0.01391
S         -5.29406        2.18644       -0.02651
C         -6.32239        0.80753        0.03721
H         -7.39579        0.93501        0.08583
C         -5.66335       -0.38227        0.03299
C         -6.38331       -1.60330        0.21687
N         -7.01980       -2.54769        0.43209
C         -4.21989       -0.21275       -0.02220
C         -3.20183       -1.17668       -0.02136
C         -3.51481       -2.62239       -0.24145
O         -4.32694       -3.01352       -1.04152
O         -2.75175       -3.41823        0.51458
C         -2.94818       -4.82377        0.31344
C         -1.88125       -0.73366        0.03556
S         -0.46636       -1.75768        0.06222
C          2.68930       -1.79132       -0.14785
F          2.06415       -2.95525       -0.23744
N          4.02867       -1.79756       -0.13745
C          4.46019       -0.56513       -0.02914
S          3.24718        0.66051        0.05707
C          5.87136       -0.22649        0.00852
S          7.09553       -1.44809       -0.11144
C          8.28482       -0.21418        0.02149
H          9.34474       -0.41705        0.00528
C          7.65992        0.99187        0.14014
F          8.29286        2.14590        0.26064
N          6.30937        0.99796        0.13467
H         -3.36971        5.74993       -1.05153
H         -1.67775        5.49112       -0.50548
H         -2.99671        5.53801        0.69284
H         -2.25815       -5.31308        0.99867
H         -2.72496       -5.09191       -0.72137
H         -3.98187       -5.09012        0.54240
