58
COMP91_200022.log	Energy: -2198766.6779568
C          1.17023       -0.09527       -0.16171
C         -0.30778       -0.17596       -0.13028
C         -1.07532       -0.52019        0.93005
Cl        -0.38382       -0.82214        2.49083
C         -2.49319       -0.54862        0.64391
C         -3.59463       -0.84188        1.45592
O         -3.47831       -1.18062        2.77130
C         -3.31847       -2.57859        2.99723
C         -4.86060       -0.75136        0.88686
S         -6.34544       -1.05114        1.75730
C         -7.27123       -0.73840        0.32178
H         -8.34961       -0.81439        0.34140
C         -6.51065       -0.41357       -0.74682
Cl        -7.21065       -0.07954       -2.29860
C         -5.08989       -0.39750       -0.46517
C         -3.98622       -0.10865       -1.27787
O         -4.09860        0.23307       -2.59304
C         -4.24603        1.63421       -2.81408
C         -2.72241       -0.19889       -0.70805
S         -1.24041        0.10215       -1.58005
C          1.86626       -1.29520       -0.44091
C          3.23667       -1.33122       -0.48195
C          3.91839       -2.62119       -0.78000
O          3.33081       -3.66063       -0.97145
N          5.31631       -2.55153       -0.81347
O          5.96143       -3.68759       -1.21941
C          6.29575       -4.51361       -0.10206
C          6.13204       -1.44017       -0.56502
O          7.33847       -1.52528       -0.58599
C          5.40115       -0.17760       -0.26868
C          6.12059        0.96889       -0.02342
H          7.20398        0.92523       -0.05215
C          5.45003        2.17212        0.25777
C          4.07455        2.21298        0.29334
C          3.41298        3.50711        0.60235
O          4.01309        4.53977        0.79711
N          2.01907        3.44891        0.64212
O          1.38625        4.58955        1.05437
C          1.05940        5.42568       -0.05727
C          1.18071        2.35501        0.37758
O         -0.01968        2.49172        0.39001
C          1.88458        1.07055        0.07593
C          3.30589        1.04799        0.04443
C          3.98605       -0.15809       -0.23846
H         -3.24022       -2.70458        4.07748
H         -2.40593       -2.95234        2.51972
H         -4.18409       -3.13677        2.62099
H         -4.30754        1.76563       -3.89482
H         -3.38244        2.18374       -2.42105
H         -5.16325        2.01018       -2.34800
H          1.30825       -2.20750       -0.62405
H          6.79427       -5.37811       -0.54107
H          5.39107       -4.83354        0.42314
H          6.98107       -3.98985        0.57062
H          6.00059        3.08590        0.45351
H          0.56941        6.29206        0.38768
H          0.36845        4.91322       -0.73286
H          1.96693        5.74049       -0.58067
