56
COMP97_020003.log	Energy: -2198095.1109100
C          0.88806       -0.11579        0.17722
C         -0.55125       -0.29501        0.46583
C         -1.12837       -0.54314        1.67796
Cl        -0.22601       -0.60535        3.15884
C         -2.53818       -0.70107        1.63485
H         -3.14726       -0.85658        2.51636
C         -3.03232       -0.59630        0.36168
S         -1.75436       -0.28707       -0.77494
C         -4.40416       -0.71844       -0.10943
C         -5.38332       -1.32674        0.57996
C         -6.77222       -1.38875        0.14935
C         -7.43002       -0.62866       -0.78327
H         -6.98133        0.19323       -1.32721
C         -8.78833       -1.01833       -0.93171
Cl        -9.86868       -0.23320       -2.04063
C         -9.16428       -2.04773       -0.12163
H        -10.13639       -2.51267       -0.04599
S         -7.84263       -2.56920        0.84649
C          1.67257       -1.29223        0.10271
C          3.01724       -1.23804       -0.16059
C          3.79716       -2.50123       -0.22911
O          3.31625       -3.59980       -0.05838
N          5.15748       -2.35418       -0.51343
C          5.92574       -3.58186       -0.63782
O          6.08732       -4.14668       -1.67860
O          6.38122       -3.93360        0.55013
C          7.14593       -5.14525        0.56537
C          5.85621       -1.15885       -0.70611
O          7.05031       -1.16895       -0.91140
C          5.04123        0.08209       -0.64057
C          5.65142        1.29900       -0.83861
H          6.71619        1.32737       -1.04313
C          4.89397        2.48133       -0.77324
C          3.54416        2.43068       -0.50728
C          2.78426        3.70208       -0.44182
O          3.27695        4.79558       -0.61809
N          1.42775        3.56744       -0.15541
C          0.65333        4.79726       -0.10486
O          0.06211        5.23459       -1.04701
O          0.72880        5.30939        1.10924
C          0.01063        6.53570        1.29019
C          0.71961        2.38994        0.11173
O         -0.44735        2.46075        0.42601
C          1.49379        1.11915       -0.01470
C          2.88690        1.19180       -0.29649
C          3.65367        0.00684       -0.36889
H         -4.62402       -0.28676       -1.08368
H         -5.14410       -1.81986        1.52020
H          1.20129       -2.25724        0.25642
H          7.42582       -5.29645        1.60629
H          8.03159       -5.03619       -0.06389
H          6.53668       -5.97575        0.20295
H          5.35700        3.44976       -0.92851
H          0.18825        6.82306        2.32491
H         -1.05402        6.37419        1.10936
H          0.38990        7.29555        0.60389
