36
COMP62_420000.log	Energy: -1720923.8869869
C         -2.10530        0.69762       -0.00516
C         -0.79483        0.11152        0.03337
C         -0.46111       -1.13652        0.56088
O         -1.24429       -2.02352        1.14501
C          0.95365       -1.36919        0.50519
Cl         1.63976       -2.81383        1.14460
C          1.66925       -0.35922       -0.07263
S          0.62846        0.92784       -0.57357
C          3.10329       -0.28494       -0.33589
S          3.88795       -1.43976       -1.36441
C          5.41447       -0.66052       -1.17974
H          6.29413       -1.05612       -1.66898
C          5.33195        0.43537       -0.37141
O          6.31924        1.27919       -0.00119
C          4.00099        0.64958        0.10751
Cl         3.62533        1.95562        1.17094
C         -3.33016        0.05226       -0.03418
C         -3.92722       -1.24456       -0.17052
O         -3.44411       -2.38721       -0.16071
N         -5.29781       -0.98394       -0.30846
C         -6.28857       -2.02865       -0.45482
C         -5.54885        0.37827       -0.29148
H         -6.55414        0.75280       -0.42715
C         -4.37149        1.02757       -0.11123
C         -3.75701        2.34719       -0.08979
O         -4.21234        3.46887       -0.09434
N         -2.35270        2.06430       -0.03813
C         -1.41766        3.15290        0.17353
H         -2.09835       -2.19605        0.64204
H          7.15207        0.98552       -0.38896
H         -5.77025       -2.98416       -0.36390
H         -6.77120       -1.97341       -1.43520
H         -7.04657       -1.95304        0.32992
H         -2.02050        4.03603        0.39232
H         -0.82008        3.35564       -0.71951
H         -0.75700        2.93982        1.01693
