42
COMP74_300003.log	Energy: -1880125.5000192
C          1.10280       -1.77276       -0.35337
C          2.39118       -1.09529       -0.19124
C          3.22766       -1.18118        0.89783
C          2.93343       -1.95292        2.06054
N          2.71074       -2.58098        3.00905
C          4.39712       -0.38102        0.72109
S          5.79955       -0.03426        1.67287
C          6.41794        0.99424        0.43296
H          7.36658        1.49565        0.56668
C          5.60003        1.07878       -0.66276
C          5.89489        1.86222       -1.81856
N          6.12362        2.49081       -2.76509
C          4.42511        0.27880       -0.48939
S          3.02533       -0.06535       -1.43938
C         -0.16270       -1.24140       -0.28745
C         -0.48346        0.17621        0.01556
O          0.36027        0.98590        0.34280
C         -1.93713        0.50252       -0.03744
C         -2.45892        1.76417        0.11518
C         -1.74945        3.07890        0.08784
O         -0.90361        3.37888       -0.71241
O         -2.23964        3.89382        1.02952
C         -1.66637        5.20499        1.05378
S         -4.17394        1.72815        0.21131
C         -4.21779        0.01673        0.02967
C         -5.52644       -0.69003        0.15521
O         -5.70038       -1.71321        0.76167
O         -6.49401        0.01970       -0.44277
C         -7.81069       -0.52507       -0.31628
C         -2.95514       -0.50587       -0.11600
C         -2.63201       -1.92174       -0.45824
O         -3.46955       -2.74939       -0.75061
C         -1.18084       -2.22593       -0.48499
C         -0.67321       -3.47571       -0.69935
H         -1.23817       -4.38268       -0.86708
S          1.03649       -3.47673       -0.66302
H         -2.17081        5.72740        1.86516
H         -1.83527        5.71155        0.10081
H         -0.59266        5.14141        1.24246
H         -8.46648        0.17648       -0.82957
H         -8.08598       -0.61463        0.73708
H         -7.85742       -1.51039       -0.78491
