41
COMP41_000022.log	Energy: -1478899.4694706
C         -1.84380        1.12033       -0.08768
C         -0.46564        0.65864       -0.05894
C          0.63994        1.44764       -0.18093
H          0.60777        2.51782       -0.35286
C          1.86814        0.71905       -0.08906
C          3.17802        1.20664       -0.16848
O          3.42581        2.53846       -0.35700
C          3.46661        3.28423        0.85486
C          4.21572        0.29140       -0.06667
S          5.92463        0.65031       -0.14417
C          6.30743       -1.03623        0.09082
H          7.34579       -1.33860        0.12691
C          5.22198       -1.83175        0.21121
H          5.26662       -2.90139        0.37432
C          3.98621       -1.09543        0.11906
C          2.67734       -1.57988        0.19749
O          2.42382       -2.90974        0.39001
C          2.36732       -3.65872       -0.81962
C          1.63683       -0.66466        0.09673
S         -0.06434       -1.04180        0.16792
C         -3.03749        0.44850       -0.11447
C         -3.50777       -0.96042       -0.12423
O         -2.91190       -2.00832       -0.09897
N         -4.91012       -0.83568       -0.14197
O         -5.71704       -1.91833       -0.29185
C         -6.10357       -2.43924        0.98261
C         -5.41416        0.47533       -0.16968
O         -6.57733        0.78574       -0.19113
C         -4.17952        1.29926       -0.14133
C         -3.88799        2.62088       -0.13190
H         -4.56076        3.46706       -0.14847
S         -2.17552        2.84458       -0.08410
H          3.68265        4.31635        0.57534
H          4.25365        2.91126        1.52102
H          2.50274        3.23796        1.37683
H          2.14590       -4.68811       -0.53472
H          3.32740       -3.62056       -1.34904
H          1.57603       -3.28344       -1.47928
H         -6.73839       -3.29529        0.75172
H         -6.67171       -1.69240        1.54553
H         -5.22376       -2.76623        1.54477
