31
COMP22_300400.log	Energy: -1366008.4824088
C          2.02341       -0.22280       -0.13943
C          0.62040       -0.56898        0.10472
C          0.12381       -1.65633        0.79516
C          0.94985       -2.60829        1.46797
N          1.60936       -3.37715        2.03160
C         -1.30002       -1.70490        0.83141
H         -1.85560       -2.47139        1.35853
C         -1.87739       -0.65800        0.16952
S         -0.67598        0.39365       -0.50805
C         -3.29507       -0.36542        0.00434
S         -4.45302       -1.65431       -0.15365
C         -5.75678       -0.55277       -0.28678
H         -6.77331       -0.90185       -0.40192
C         -5.32317        0.74658       -0.23175
C         -6.20348        1.87010       -0.32051
N         -6.91296        2.78379       -0.39258
C         -3.90812        0.85463       -0.06277
H         -3.38704        1.80001        0.02856
C          2.53414        1.09385        0.12804
N          1.82817        2.12492        0.57703
S          2.86602        3.37721        0.72068
N          4.24371        2.65751        0.22238
C          3.92748        1.40240       -0.07551
C          4.82840        0.40597       -0.55416
H          5.87704        0.64362       -0.69905
C          4.31639       -0.82316       -0.81777
O          5.02452       -1.88449       -1.28575
C          2.91460       -1.14537       -0.62957
O          2.50972       -2.37684       -0.97017
H          5.96063       -1.66219       -1.35716
H          3.28749       -2.91088       -1.19172
