52
COMP92_330002.log	Energy: -1661918.8842991
C          0.69360       -0.06411        0.22510
C         -0.75577       -0.06739        0.53509
C         -1.31824       -0.03217        1.78433
C         -0.54053        0.08954        2.97482
N          0.11798        0.18508        3.92319
C         -2.74843       -0.11677        1.74842
C         -3.55615       -0.11467        2.92522
N         -4.21022       -0.10971        3.88195
C         -3.24075       -0.23020        0.46567
S         -1.94939       -0.22759       -0.68733
C         -4.63196       -0.32469        0.03884
S         -5.86671        0.63213        0.78570
C         -7.07908       -0.00871       -0.23248
H         -8.10980        0.30080       -0.12900
C         -6.57749       -0.91667       -1.12428
C         -7.37527       -1.60502       -2.08885
N         -8.02760       -2.15712       -2.87074
C         -5.16265       -1.10260       -0.97060
C         -4.40543       -2.01179       -1.76912
N         -3.79025       -2.74437       -2.42340
C          1.34863       -1.31627        0.22577
C          2.69634       -1.40678       -0.01644
C          3.34304       -2.74996       -0.00353
O          2.74306       -3.77383        0.22505
N          4.71666       -2.74185       -0.26700
O          5.30621       -3.96889       -0.39717
C          5.82831       -4.42143        0.85502
C          5.54190       -1.63697       -0.51382
O          6.72966       -1.76304       -0.69950
C          4.84706       -0.31912       -0.51247
C          5.57579        0.82238       -0.74996
H          6.64149        0.73628       -0.93224
C          4.93920        2.07759       -0.75259
C          3.58726        2.17520       -0.51601
C          2.95818        3.52106       -0.51996
O          3.55857        4.54530       -0.74630
N          1.58387        3.52215       -0.25226
O          1.00366        4.75293       -0.11619
C          0.49956        5.22454       -1.36820
C          0.74317        2.43024       -0.02380
O         -0.44586        2.58840        0.14057
C          1.41540        1.09510       -0.02182
C          2.81060        1.01519       -0.26829
C          3.45451       -0.24260       -0.26844
H          0.78760       -2.22378        0.42444
H          6.27126       -5.39212        0.63179
H          5.02424       -4.53838        1.58734
H          6.59882       -3.73572        1.21897
H          5.50141        2.98655       -0.93751
H          0.06480        6.19746       -1.13870
H         -0.27482        4.55151       -1.74762
H          1.31219        5.34117       -2.09092
