32
COMP52_310300.log	Energy: -1761704.4476219
C          1.05859        0.43608        0.24190
C         -0.34324        0.06322        0.34650
C         -0.88059       -1.06128        0.94553
C         -0.13732       -2.06635        1.63015
N          0.46367       -2.88707        2.18535
C         -2.29964       -1.08645        0.84937
F         -3.01421       -2.05838        1.39046
C         -2.84238       -0.02333        0.18547
S         -1.58380        1.04117       -0.35287
C         -4.24863        0.22542       -0.07514
S         -5.00277        1.77605        0.15979
C         -6.52776        1.18680       -0.34318
H         -7.38884        1.83934       -0.37650
C         -6.48968       -0.14430       -0.66638
C         -7.61117       -0.90548       -1.11130
N         -8.52242       -1.52227       -1.47335
C         -5.17512       -0.67857       -0.51080
F         -4.89502       -1.94156       -0.78817
C          1.62725        1.69443        0.31430
C          0.90117        2.90504        0.55857
N          0.30212        3.87745        0.75264
N          2.98249        1.75431        0.16007
C          3.46500        0.56116       -0.03055
S          2.30705       -0.72957       -0.03786
C          4.88243        0.29403       -0.22438
S          6.06163        1.57224       -0.17912
C          7.27598        0.40324       -0.47752
H          8.32108        0.66593       -0.56042
C          6.71536       -0.84195       -0.58836
C          7.46469       -2.03641       -0.84503
N          8.09581       -2.98414       -1.05540
N          5.35369       -0.89772       -0.44328
