34
COMP52_330300.log	Energy: -1752918.2917009
C          1.12307       -0.10770       -0.52233
C         -0.25833        0.34520       -0.42190
C         -0.72839        1.64214       -0.39836
C          0.10268        2.79710       -0.51140
N          0.78005        3.73279       -0.60201
C         -2.15061        1.71159       -0.26078
C         -2.86924        2.94354       -0.19601
N         -3.45518        3.94194       -0.14788
C         -2.73920        0.46659       -0.17983
S         -1.55473       -0.78385       -0.27518
C         -4.15827        0.15123       -0.05220
S         -5.34780        0.93254       -1.03605
C         -6.62125        0.05242       -0.31510
H         -7.64678        0.21389       -0.61713
C         -6.17218       -0.81911        0.63986
C         -7.02814       -1.67297        1.40068
N         -7.72729       -2.36378        2.01335
C         -4.74698       -0.76502        0.79471
C         -4.02777       -1.55265        1.74383
N         -3.43537       -2.19117        2.50808
C          1.63137       -1.14492       -1.27991
C          0.84916       -1.95312       -2.16785
N          0.19215       -2.59161       -2.87670
N          2.97250       -1.37084       -1.16911
C          3.50144       -0.52190       -0.33588
S          2.40880        0.61773        0.37901
C          4.91906       -0.50386       -0.00566
S          6.03144       -1.63488       -0.71539
C          7.28584       -0.90135        0.18898
H          8.31041       -1.24061        0.13051
C          6.78435        0.12379        0.94755
C          7.57987        0.93726        1.81894
N          8.24711        1.57702        2.51620
N          5.43665        0.34460        0.83292
