33
COMP27_210400.log	Energy: -2000118.8638933
C         -3.17987       -0.16292        0.16529
C         -1.79249       -0.57346       -0.04625
C         -1.34014       -1.78455       -0.48480
F         -2.13086       -2.78086       -0.86074
C          0.07392       -1.89721       -0.53641
Cl         0.85075       -3.34326       -1.07147
C          0.72143       -0.75288       -0.14080
S         -0.43949        0.46504        0.29464
C          2.15409       -0.54383       -0.09570
C          2.74906        0.61714        0.23298
C          4.17432        0.88680        0.30038
C          5.29277        0.10740        0.11960
Cl         5.32601       -1.57347       -0.27229
C          6.50828        0.83042        0.29566
F          7.69213        0.24301        0.16163
C          6.33542        2.13971        0.60606
H          7.09924        2.88153        0.78372
S          4.65912        2.51612        0.68871
C         -3.67801        1.10402       -0.29601
N         -2.96901        2.03212       -0.92847
S         -3.98469        3.27255       -1.23474
N         -5.35792        2.67914       -0.58028
C         -5.05612        1.47990       -0.09539
C         -5.95679        0.59684        0.56901
H         -6.99408        0.88100        0.71229
C         -5.45737       -0.58744        1.00679
O         -6.17039       -1.53898        1.66835
C         -4.07194       -0.97318        0.82335
O         -3.68282       -2.15211        1.33451
H          2.74612       -1.41366       -0.35608
H          2.12172        1.47385        0.47762
H         -7.08306       -1.25125        1.79061
H         -4.45064       -2.57633        1.74581
