56
COMP97_100003.log	Energy: -1745817.9063778
C          0.65625       -0.17558        0.35120
C         -0.78038       -0.45492        0.55249
C         -1.34196       -1.07692        1.63129
H         -0.80380       -1.36689        2.52511
C         -2.73242       -1.26815        1.45599
F         -3.47816       -1.84426        2.40756
C         -3.24578       -0.83503        0.26034
S         -1.95376       -0.15184       -0.68259
C         -4.59452       -0.87859       -0.27353
C         -5.65456       -1.41650        0.36024
C         -7.00501       -1.45971       -0.16912
C         -7.52411       -1.00865       -1.35638
F         -6.78368       -0.40068       -2.29329
C         -8.91219       -1.22510       -1.54181
H         -9.45180       -0.92150       -2.42957
C         -9.45987       -1.85725       -0.46571
H        -10.49084       -2.14865       -0.32309
S         -8.29147       -2.18130        0.75567
C          1.50366       -1.30778        0.24856
C          2.84862       -1.17964        0.01715
C          3.69005       -2.40119       -0.07753
O          3.26402       -3.52570        0.06984
N          5.04148       -2.18029       -0.35462
C          5.87209       -3.36355       -0.50793
O          6.04598       -3.90603       -1.55839
O          6.36757       -3.70357        0.66742
C          7.21189       -4.86128        0.65039
C          5.68127       -0.94707       -0.51362
O          6.87393       -0.89471       -0.72095
C          4.80851        0.25095       -0.41013
C          5.35954        1.50156       -0.56916
H          6.42135        1.58890       -0.77186
C          4.54521        2.64256       -0.46658
C          3.20056        2.51832       -0.19762
C          2.38212        3.74980       -0.08584
O          2.81117        4.86751       -0.27454
N          1.05209        3.54397        0.27421
C          0.26150        4.73400        0.54211
O          0.28192        5.30973        1.58915
O         -0.44014        5.04090       -0.53334
C         -1.29414        6.18167       -0.38784
C          0.40247        2.32249        0.49304
O         -0.74202        2.32594        0.88738
C          1.21297        1.09438        0.24086
C          2.60273        1.24313       -0.03054
C          3.42638        0.10036       -0.14474
H         -4.73104       -0.43528       -1.25451
H         -5.51687       -1.85873        1.34170
H          1.07588       -2.30035        0.34304
H          7.51495       -5.01249        1.68482
H          8.08002       -4.67964        0.01348
H          6.65630       -5.72426        0.27801
H          4.96028        3.63658       -0.59337
H         -1.77972        6.30355       -1.35438
H         -0.70259        7.06429       -0.13600
H         -2.03174        5.99690        0.39597
