35
COMP21_100200.log	Energy: -1954345.7258122
C          2.15743        0.03804       -0.07169
C          0.68885        0.07208       -0.09758
C         -0.15080       -0.71116        0.61442
F          0.30574       -1.64570        1.45445
C         -1.55820       -0.47371        0.41007
C         -2.67136       -1.10593        0.98163
C         -2.59747       -2.22920        1.98132
C         -3.90903       -0.62847        0.55966
S         -5.44542       -1.25697        1.12885
C         -6.31546       -0.13119        0.12895
H         -7.39564       -0.10982        0.11721
C         -5.48971        0.65928       -0.58209
F         -5.94572        1.59980       -1.41952
C         -4.07758        0.42153       -0.37853
C         -2.96396        1.05430       -0.94753
C         -3.03643        2.17965       -1.94492
C         -1.72525        0.57611       -0.52697
S         -0.19446        1.20711       -1.09680
C          2.88480        1.17694        0.40869
N          2.34352        2.31003        0.85507
S          3.58352        3.26996        1.28242
N          4.84261        2.30086        0.93511
C          4.31867        1.17108        0.45857
C          5.04511        0.02666        0.03568
H          6.12703        0.01725        0.08059
C          4.34204       -1.04742       -0.41902
Cl         5.22641       -2.44935       -0.93542
C          2.89693       -1.04559       -0.48410
Cl         2.09700       -2.44259       -1.12024
H         -1.57188       -2.49393        2.22776
H         -3.09537       -3.12378        1.58842
H         -3.11166       -1.94985        2.90878
H         -4.06242        2.44388       -2.19058
H         -2.52191        1.90311       -2.87314
H         -2.53899        3.07343       -1.54925
