28
COMP49_000011.log	Energy: -1239493.1507134
C         -1.70814        0.76304       -0.00180
C         -0.26258        0.69143       -0.00057
C          0.61042        1.76330        0.00502
C          1.95817        1.36138        0.00435
C          2.09542       -0.01223       -0.00211
S          0.59724       -0.84043       -0.00701
C          3.50220       -0.34057       -0.00151
C          4.23587        0.82520        0.00539
C          3.31611        2.02503        0.01051
H          3.46749        2.66405       -0.86759
H          3.46373        2.65172        0.89820
C          5.63573        0.58965        0.00645
C          5.92088       -0.74757       -0.00016
H          6.89489       -1.21724       -0.00143
S          4.49770       -1.74066       -0.00688
C         -2.68151       -0.20439        0.00104
C         -2.75953       -1.68432        0.00477
O         -1.88807       -2.52287        0.00564
N         -4.13489       -1.96022        0.00639
H         -4.49446       -2.90405        0.00823
C         -4.96515       -0.83314        0.00314
O         -6.17162       -0.84312        0.00303
C         -4.00954        0.30586       -0.00002
C         -4.08887        1.65636       -0.00453
H         -4.96348        2.29177       -0.00538
S         -2.49619        2.33447       -0.00783
H          0.27795        2.79610        0.01015
H          6.39869        1.35898        0.01141
