39
COMP21_400220.log	Energy: -2018559.6025992
C          2.33526       -0.08729       -0.02944
C          0.86395       -0.09065       -0.01123
C          0.02247        0.88255       -0.48158
O          0.38084        2.03682       -1.08156
C         -1.37864        0.56652       -0.30250
C         -2.51917        1.28267       -0.69240
O         -2.47729        2.46279       -1.37212
C         -2.23817        3.60325       -0.55589
C         -3.75868        0.72734       -0.39693
S         -5.29010        1.46431       -0.80308
C         -6.14060        0.13515       -0.05391
H         -7.22305        0.12978       -0.04169
C         -5.31977       -0.81114        0.46140
O         -5.68775       -1.95410        1.09483
C         -3.91586       -0.50663        0.27729
C         -2.77644       -1.21905        0.66927
O         -2.82129       -2.39876        1.35196
C         -3.06771       -3.53901        0.53570
C         -1.53775       -0.66581        0.36782
S         -0.01574       -1.40663        0.77278
C          3.05536        1.07608        0.41629
N          2.50136        2.24238        0.75442
S          3.71775        3.24161        1.18028
N          4.98145        2.25051        0.95352
C          4.48621        1.08954        0.52365
C          5.24286       -0.05698        0.17264
H          6.32112       -0.05613        0.26858
C          4.56375       -1.13745       -0.30034
Cl         5.48328       -2.53543       -0.76226
C          3.12122       -1.15369       -0.42289
Cl         2.39629       -2.56109       -1.12282
H          1.16606        2.37933       -0.61860
H         -2.27621        4.46541       -1.22323
H         -1.25073        3.54559       -0.08855
H         -3.01360        3.69896        0.21420
H         -6.65094       -1.98966        1.13665
H         -3.02192       -4.40237        1.20097
H         -2.29969       -3.63239       -0.24191
H         -4.06007       -3.48296        0.07788
