34
COMP33_000030.log	Energy: -825534.9391081
C          0.90563       -0.63056        0.02352
C         -0.27859        0.26462       -0.06898
C         -1.54004       -0.30071        0.10976
C         -2.68906        0.48543        0.06706
C         -4.05356       -0.09494        0.24258
O         -5.07411        0.55332        0.20334
O         -4.02391       -1.41848        0.44900
C         -5.29875       -2.03770        0.61963
C         -2.58360        1.85889       -0.14047
H         -3.48641        2.45930       -0.16680
C         -1.33370        2.43321       -0.31079
C         -0.17867        1.64836       -0.29011
C          1.14699        2.28858       -0.56267
O          2.09958        1.72758       -1.05121
O          1.14875        3.58511       -0.22407
C          2.36770        4.27949       -0.48981
C          1.04154       -1.72652       -0.82313
F          0.12421       -1.96322       -1.76512
C          2.12543       -2.58936       -0.71539
F          2.21413       -3.62580       -1.55171
C          3.10145       -2.38493        0.24364
H          3.94546       -3.05831        0.32746
C          2.97565       -1.29657        1.09210
F          3.89814       -1.06856        2.02963
C          1.89360       -0.43662        0.98594
F          1.81124        0.60666        1.81759
H         -1.62850       -1.36593        0.28750
H         -5.09213       -3.09528        0.77895
H         -5.91370       -1.89605       -0.27219
H         -5.81699       -1.61251        1.48227
H         -1.24131        3.50048       -0.47347
H          2.20474        5.29883       -0.14214
H          2.58906        4.26805       -1.55983
H          3.19560        3.81547        0.05094
