37
COMP47_300002.log	Energy: -1451672.0322363
C         -2.30462        0.98135       -0.06871
C         -0.96812        0.41654       -0.05874
C         -0.62941       -0.91149       -0.10250
H         -1.36201       -1.70966       -0.14990
C          0.77654       -1.11926       -0.07674
C          1.34681       -2.42703       -0.10888
N          1.81454       -3.48834       -0.13487
C          1.51703        0.05408       -0.01473
S          0.45105        1.41556        0.01422
C          2.94414        0.31396        0.02813
C          3.91263       -0.62135       -0.03419
C          5.34205       -0.36730        0.00526
C          6.08260        0.80187        0.10893
C          5.51863        2.10784        0.21202
N          5.06369        3.17206        0.29616
C          7.49397        0.58293        0.10469
H          8.21970        1.38307        0.17700
C          7.81198       -0.73583       -0.00069
H          8.79710       -1.17990       -0.02779
S          6.41121       -1.72588       -0.09462
C         -3.52371        0.35414       -0.10317
C         -4.04681       -1.03406       -0.13451
O         -3.48888       -2.10595       -0.15101
N         -5.44012       -0.85878       -0.11823
O         -6.28855       -1.90386       -0.29976
C         -6.70096       -2.44488        0.95869
C         -5.89434        0.47344       -0.12581
O         -7.04455        0.82589       -0.13256
C         -4.62886        1.25003       -0.09935
C         -4.28454        2.55917       -0.06352
H         -4.92077        3.43317       -0.05379
S         -2.56362        2.71367       -0.03726
H          3.21458        1.36169        0.11564
H          3.64029       -1.66833       -0.12554
H         -7.37660       -3.26084        0.70096
H         -7.23268       -1.68918        1.54461
H         -5.83862       -2.83186        1.50957
