33
COMP27_130100.log	Energy: -1569189.1982325
C          3.04057        0.54915       -0.12933
C          1.65139        0.09969       -0.25990
C          1.21532       -1.12333       -0.72482
C          2.05970       -2.14619       -1.24904
N          2.73870       -2.97098       -1.69720
C         -0.20115       -1.23163       -0.68090
F         -0.81845       -2.33555       -1.09858
C         -0.85501       -0.13142       -0.19462
S          0.31919        1.07971        0.22235
C         -2.27100        0.12653       -0.00641
C         -3.25310       -0.74636       -0.29967
C         -4.66982       -0.49048       -0.11101
C         -5.32613        0.61475        0.36067
F         -4.71325        1.72894        0.75661
C         -6.74625        0.49838        0.40385
C         -7.61602        1.53247        0.86157
N         -8.32262        2.37198        1.23348
C         -7.16205       -0.72746       -0.04878
H         -8.17956       -1.08322       -0.12524
S         -5.84398       -1.71129       -0.51456
C          4.02040       -0.25207        0.55227
N          3.78502       -1.40907        1.16290
S          5.21026       -1.91214        1.76075
N          6.17109       -0.68615        1.29235
C          5.39406        0.17071        0.63222
C          5.81232        1.40583        0.05789
H          6.84157        1.73708        0.11428
C          4.86026        2.14980       -0.55624
F          5.14977        3.31928       -1.12029
C          3.49217        1.72838       -0.65051
F          2.67246        2.55003       -1.30041
H         -2.52391        1.09899        0.40336
H         -2.99953       -1.71870       -0.70922
