27
COMP22_220200.log	Energy: -2886241.1202506
C         -2.29687        0.01425       -0.16357
C         -0.86050        0.03359        0.16160
C         -0.27411       -0.27868        1.35410
Cl        -1.15525       -0.80093        2.73924
C          1.14458       -0.11072        1.34082
Cl         2.14298       -0.40594        2.71049
C          1.61783        0.32802        0.13459
S          0.31993        0.53634       -0.99451
C          3.00038        0.60316       -0.24532
S          3.55946        2.22644       -0.49837
C          5.14641        1.69106       -0.87640
H          5.92757        2.39287       -1.13081
C          5.24863        0.33587       -0.80541
Cl         6.70439       -0.53363       -1.12490
C          4.01493       -0.29356       -0.44638
Cl         3.82760       -1.99816       -0.30650
C         -3.03713        1.23899       -0.13822
N         -2.53867        2.44204        0.14514
S         -3.78290        3.48316        0.04289
N         -4.98766        2.46780       -0.35827
C         -4.44135        1.25284       -0.42704
C         -5.11843        0.04525       -0.74475
H         -6.17995        0.05425       -0.95922
C         -4.39875       -1.11128       -0.76845
Cl        -5.21962       -2.58918       -1.15672
C         -2.98125       -1.13279       -0.48125
Cl        -2.13500       -2.63964       -0.54304
