36
COMP57_140300.log	Energy: -1788910.3479908
C          1.74109        0.37164        0.28774
C          0.35867       -0.04101        0.34880
C         -0.12709       -1.28204        0.71213
O          0.55654       -2.36647        1.12747
C         -1.53815       -1.35623        0.60115
F         -2.18721       -2.47819        0.91765
C         -2.14695       -0.20822        0.16918
S         -0.95166        1.01876       -0.10667
C         -3.54831        0.09251       -0.05014
C         -4.55173       -0.79309        0.10799
C         -5.95429       -0.50263       -0.10959
C         -6.58104        0.64986       -0.49506
F         -5.95966        1.81307       -0.76388
C         -7.99687        0.57231       -0.60919
O         -8.77821        1.61188       -0.97848
C         -8.45358       -0.67452       -0.30035
H         -9.47866       -1.01374       -0.30308
S         -7.15976       -1.73501        0.12378
C          2.30880        1.61910        0.48499
C          1.58039        2.79560        0.84902
N          0.98831        3.74735        1.14350
N          3.66793        1.70278        0.33791
C          4.16783        0.54449        0.03869
S          3.01106       -0.74584       -0.12767
C          5.58864        0.30327       -0.15440
S          6.75334        1.58792       -0.00608
C          7.98640        0.45368       -0.36412
H          9.02947        0.73217       -0.41322
C          7.44098       -0.78605       -0.56563
C          8.20678       -1.95455       -0.88571
N          8.84917       -2.88316       -1.14283
N          6.07708       -0.86646       -0.44540
H          1.43643       -2.11646        1.44067
H         -3.77151        1.10759       -0.36247
H         -4.32295       -1.80722        0.41985
H         -8.21210        2.37878       -1.13649
