36
COMP47_030000.log	Energy: -1404527.9139334
C          2.85677        0.79136       -0.03612
C          1.41854        0.99459       -0.12078
C          0.71286        2.17700       -0.31445
C          1.29184        3.46826       -0.50637
N          1.71809        4.53571       -0.66266
C         -0.69688        2.00636       -0.32950
H         -1.38483        2.82419       -0.50477
C         -1.07379        0.70408       -0.13589
S          0.30752       -0.32605        0.04130
C         -2.40964        0.13039       -0.07081
C         -3.52473        0.84671        0.14805
C         -4.86769        0.28453        0.15387
C         -5.31805       -0.89916       -0.36829
H         -4.69705       -1.59415       -0.91980
C         -6.71167       -1.10633       -0.14056
C         -7.42923       -2.26056       -0.58587
N         -8.00484       -3.19890       -0.94861
C         -7.30262       -0.07260        0.54169
H         -8.34093        0.01642        0.82842
S         -6.17008        1.15314        0.91530
C          3.58605       -0.37265        0.02645
C          3.34218       -1.83988        0.02376
O          2.30204       -2.45812       -0.02817
N          4.61126       -2.42386        0.10272
C          4.83347       -3.85376        0.13197
C          5.65775       -1.49477        0.16577
O          6.82895       -1.77621        0.24374
C          4.98550       -0.17282        0.11479
C          5.35904        1.12968        0.12712
H          6.35116        1.55588        0.18546
S          3.97309        2.14716        0.02671
H         -2.48330       -0.94773       -0.19698
H         -3.44293        1.91360        0.34576
H          3.86421       -4.34155        0.02538
H          5.29503       -4.14641        1.07840
H          5.49234       -4.14693       -0.68869
