33
COMP27_030200.log	Energy: -1896961.7554403
C          2.57866        0.14966       -0.03394
C          1.15065       -0.03884        0.27073
C          0.62421       -0.86507        1.23932
C          1.44040       -1.61171        2.14496
N          2.10367       -2.21452        2.87972
C         -0.79904       -0.87925        1.26004
H         -1.37541       -1.43784        1.98690
C         -1.34986       -0.08503        0.28935
S         -0.11012        0.69931       -0.64082
C         -2.75241        0.15329       -0.02135
C         -3.74991       -0.66451        0.35206
C         -5.16061       -0.40165        0.10493
C         -5.78480        0.77009       -0.23258
H         -5.27830        1.72183       -0.33435
C         -7.19246        0.61311       -0.40837
C         -8.07369        1.68257       -0.76231
N         -8.78081        2.55435       -1.05111
C         -7.61987       -0.67263       -0.19087
H         -8.63112       -1.04884       -0.25479
S         -6.31582       -1.69871        0.22187
C          3.33189       -0.97953       -0.49577
N          2.84466       -2.20104       -0.71073
S          4.09833       -3.10968       -1.20037
N          5.29216       -2.00731       -1.17520
C          4.73452       -0.86639       -0.76618
C          5.39716        0.37828       -0.60052
H          6.45582        0.46718       -0.81044
C          4.66678        1.44557       -0.17180
Cl         5.46973        2.96992        0.03232
C          3.25582        1.33530        0.12272
Cl         2.42204        2.72944        0.72370
H         -2.97981        1.04811       -0.59696
H         -3.51188       -1.59404        0.86510
