32
COMP61_300011.log	Energy: -1163991.3544943
C          2.55241        0.63976       -0.20479
C          1.11297        0.49098       -0.17172
C          0.39710       -0.65168       -0.40901
C          0.95212       -1.88300       -0.86229
N          1.33433       -2.89471       -1.28007
C         -1.02935       -0.46586       -0.26628
C         -2.03631       -1.41577       -0.42895
H         -1.79138       -2.44159       -0.68617
C         -3.34382       -0.99522       -0.24089
S         -4.78700       -1.97833       -0.37324
C         -5.79059       -0.62668        0.01291
H         -6.86477       -0.74611        0.05984
C         -5.09355        0.51948        0.23582
C         -5.69258        1.77041        0.56997
N         -6.14146        2.80434        0.84185
C         -3.66223        0.34350        0.09722
C         -2.65573        1.29449        0.25538
H         -2.89887        2.32056        0.51298
C         -1.34838        0.87243        0.06939
S          0.09113        1.85401        0.21837
C          3.52194       -0.21825        0.22297
C          3.72755       -1.47575        0.94970
O          2.97072       -2.31047        1.38968
N          5.14460       -1.52079        1.07405
H          5.61533       -2.29070        1.52359
C          5.75269       -0.41029        0.53647
H          6.82592       -0.28452        0.58765
C          4.79918        0.40252        0.01064
C          4.58889        1.71596       -0.60087
O          5.34013        2.57931       -0.99259
N          3.16804        1.79883       -0.65897
H          2.70836        2.52503       -1.18887
