33
COMP27_100300.log	Energy: -1444683.5854910
C         -2.60589       -0.17359        0.07027
C         -1.17260       -0.40361        0.22188
C         -0.55631       -1.51416        0.75160
H         -1.06586       -2.36672        1.17950
C          0.84464       -1.41731        0.69224
F          1.63033       -2.38945        1.16907
C          1.33648       -0.26533        0.12324
S          0.00871        0.75124       -0.32527
C          2.69745        0.17588       -0.11106
C          3.79860       -0.53348        0.20772
C          5.16168       -0.10014       -0.02896
C          5.65464        1.04484       -0.60418
F          4.86911        2.02249       -1.07348
C          7.06607        1.13682       -0.67566
H          7.59007        1.98164       -1.10336
C          7.65769        0.03163       -0.14005
H          8.71500       -0.17562       -0.05390
S          6.50400       -1.10331        0.44235
C         -3.16333        1.14967        0.19213
N         -2.46742        2.25977        0.43478
S         -3.53461        3.48064        0.48320
N         -4.91430        2.67098        0.20798
C         -4.57474        1.38937        0.06432
C         -5.47339        0.31926       -0.18291
H         -6.53707        0.50035       -0.27481
C         -4.94106       -0.93293       -0.30354
C         -5.82819       -2.03395       -0.56104
N         -6.56943       -2.90025       -0.76491
C         -3.51769       -1.18454       -0.19362
C         -3.08930       -2.53599       -0.40917
N         -2.77856       -3.63781       -0.59043
H          2.80777        1.14802       -0.58005
H          3.68493       -1.50554        0.67668
