34
COMP26_000210.log	Energy: -1354036.7611267
C          1.50899       -0.08424        0.08621
C          0.03307       -0.20327        0.20081
C         -0.78732        0.42770       -0.74074
C         -2.16178        0.32616       -0.61472
C         -3.24721        0.89845       -1.49707
H         -3.18883        1.99213       -1.55869
H         -3.17910        0.51629       -2.52327
C         -4.51082        0.43645       -0.80703
C         -5.83552        0.66076       -1.15173
C         -6.84160        0.12618       -0.34685
H         -7.88322        0.29521       -0.60324
C         -6.52344       -0.62291        0.78693
C         -5.19513       -0.85092        1.13605
C         -4.19206       -0.31671        0.33354
C         -2.72965       -0.38618        0.45191
C         -1.91898       -1.00515        1.39755
C         -0.53889       -0.91120        1.26350
C          2.11554        1.21391        0.17312
N          1.46139        2.36362        0.34690
S          2.59018        3.53242        0.38628
N          3.94074        2.64633        0.18919
C          3.53896        1.37920        0.08463
C          4.38090        0.24980       -0.09365
H          5.45474        0.37122       -0.16059
C          3.79362       -0.97529       -0.18057
Cl         4.81712       -2.36090       -0.40563
C          2.35978       -1.14731       -0.09573
Cl         1.71174       -2.74983       -0.26846
H         -0.34185        0.98657       -1.55861
H         -6.08971        1.24265       -2.03381
H         -7.31975       -1.03083        1.40235
H         -4.95050       -1.43362        2.01994
H         -2.34952       -1.55178        2.23144
H          0.10845       -1.38653        1.99403
