37
COMP27_340400.log	Energy: -1508937.1763923
C         -3.02607        0.44300       -0.16449
C         -1.64980       -0.06746       -0.22656
C         -1.19156       -1.35214       -0.47379
O         -1.89155       -2.45354       -0.76656
C          0.23555       -1.45686       -0.43650
C          0.89173       -2.69868       -0.66950
N          1.45121       -3.69897       -0.85071
C          0.87019       -0.26189       -0.15139
S         -0.28863        0.99189        0.05618
C          2.27146        0.08921       -0.01664
C          3.31319       -0.75997       -0.11593
C          4.70941       -0.39100        0.02152
C          5.32335        0.82630        0.27902
C          4.68259        2.07803        0.48264
N          4.24587        3.14010        0.65993
C          6.75614        0.73966        0.33173
O          7.57596        1.78397        0.56713
C          7.20928       -0.52826        0.11552
H          8.23682       -0.85933        0.10222
S          5.90705       -1.62065       -0.15142
C         -4.14574       -0.36767        0.24283
N         -4.09981       -1.65768        0.56497
S         -5.61402       -2.12840        0.96921
N         -6.38571       -0.71318        0.75502
C         -5.48073        0.17310        0.35607
C         -5.74322        1.53808        0.05613
H         -6.74601        1.93931        0.15317
C         -4.68290        2.28513       -0.34281
O         -4.73832        3.60232       -0.67396
C         -3.34145        1.75283       -0.45754
O         -2.38401        2.61198       -0.84966
H         -2.76767       -2.40256       -0.32730
H          2.45496        1.14136        0.18344
H          3.13379       -1.81230       -0.31405
H          7.05480        2.58933        0.69289
H         -5.64060        3.93458       -0.59459
H         -2.78242        3.48579       -0.98130
