36
COMP77_010001.log	Energy: -1700135.5224999
C          1.64921        1.25545        0.26457
C          0.30526        0.72086        0.39870
C         -0.12916       -0.27568        1.23203
F          0.67289       -0.91206        2.07567
C         -1.50924       -0.56350        1.15931
H         -1.98070       -1.33427        1.75540
C         -2.15561        0.24192        0.25470
S         -1.04385        1.33975       -0.50417
C         -3.55834        0.28502       -0.12224
C         -4.52065       -0.47437        0.42832
C         -5.92042       -0.44646        0.03746
C         -6.52182        0.15986       -1.03657
H         -6.00268        0.71788       -1.80555
C         -7.92310       -0.05000       -1.04099
F         -8.70391        0.45148       -2.00021
C         -8.39455       -0.80032       -0.00731
H         -9.41599       -1.08890        0.18983
S         -7.09633       -1.27276        1.01874
C          2.84708        0.59803        0.08550
C          3.01862       -0.86358       -0.12712
O          2.09921       -1.66011       -0.16316
C          4.42865       -1.28863       -0.31981
C          4.81493       -2.58480       -0.50508
H          4.17276       -3.45422       -0.53782
S          6.51906       -2.71183       -0.68864
C          6.73373       -1.01584       -0.51805
H          7.71207       -0.55797       -0.56722
C          5.53990       -0.38172       -0.32701
C          5.37320        1.07737       -0.15525
O          6.30270        1.86391       -0.17633
C          3.96450        1.50400        0.03896
C          3.59862        2.81103        0.16627
H          4.25788        3.66817        0.14630
S          1.90615        2.97489        0.36725
H         -3.82317        0.99617       -0.90189
H         -4.26152       -1.16465        1.22862
