31
COMP22_340200.log	Energy: -1942778.1602742
C         -1.93021        0.13892       -0.00921
C         -0.52547       -0.20459       -0.28409
C         -0.08597       -1.27563       -1.02637
C         -0.91733       -2.19860       -1.72312
N         -1.52304       -2.98802       -2.31988
C          1.33743       -1.39016       -1.04739
O          2.02488       -2.34116       -1.71560
C          1.96886       -0.41763       -0.31197
S          0.79382        0.64939        0.41040
C          3.39543       -0.24372       -0.12914
S          4.57767       -1.29414       -0.87105
C          5.88118       -0.43709       -0.17899
H          6.90374       -0.73437       -0.36316
C          5.45287        0.61264        0.59077
C          6.27988        1.52417        1.30829
N          6.87537        2.30885        1.92166
C          4.02496        0.72149        0.61762
O          3.33531        1.66267        1.29686
C         -2.72724       -0.79218        0.73521
N         -2.30253       -1.95469        1.22948
S         -3.58281       -2.62912        1.96677
N         -4.71106       -1.48966        1.70437
C         -4.10789       -0.52334        1.00992
C         -4.70654        0.68182        0.55695
H         -5.74921        0.88658        0.76594
C         -3.93633        1.55878       -0.14563
Cl        -4.66306        3.03051       -0.70756
C         -2.54611        1.29012       -0.43885
Cl        -1.66216        2.43656       -1.38899
H          1.41419       -2.94310       -2.16401
H          3.94342        2.25536        1.76096
