33
COMP42_030002.log	Energy: -1403114.5421463
C          1.36545       -0.88485       -0.23582
C          0.06378       -0.24436       -0.16009
C         -0.19527        1.09275       -0.00652
H          0.58103        1.84515        0.07637
C         -1.58815        1.37243        0.04380
C         -2.09867        2.69498        0.22777
N         -2.49790        3.77331        0.37496
C         -2.38579        0.24634       -0.07043
S         -1.40673       -1.16394       -0.25313
C         -3.83927        0.15642       -0.08134
S         -4.80566        1.33250       -0.90221
C         -6.26395        0.53057       -0.47705
H         -7.21524        0.94065       -0.78649
C         -6.03857       -0.59295        0.25623
H         -6.81438       -1.24573        0.63508
C         -4.64752       -0.81456        0.48555
C         -4.16439       -1.91884        1.25282
N         -3.79660       -2.82551        1.87514
C          2.61955       -0.33326       -0.18619
C          3.22599        1.01374       -0.03378
O          2.73204        2.10920        0.09026
N          4.60555        0.75299       -0.03797
O          5.51594        1.75976       -0.08203
C          5.96458        2.09325        1.23501
C          4.97860       -0.59254       -0.21952
O          6.10545       -1.01009       -0.27139
C          3.66840       -1.28769       -0.29549
C          3.24447       -2.56718       -0.42840
H          3.82526       -3.47365       -0.52700
S          1.51831       -2.61881       -0.42289
H          6.69520        2.88871        1.08617
H          6.44245        1.22917        1.70589
H          5.13088        2.45781        1.84257
