33
COMP27_200300.log	Energy: -1896959.9449186
C          2.78675       -0.07684       -0.04349
C          1.41246       -0.54235       -0.21693
C          0.99980       -1.78511       -0.62842
H          1.66397       -2.58506       -0.92705
C         -0.40730       -1.91033       -0.63759
Cl        -1.18905       -3.37563       -1.13110
C         -1.08559       -0.78178       -0.23177
S          0.04618        0.47613        0.14125
C         -2.52192       -0.61880       -0.13310
C         -3.13762        0.52185        0.22922
C         -4.56445        0.75860        0.35498
C         -5.68078       -0.02361        0.15701
Cl        -5.66125       -1.68180       -0.35223
C         -6.91644        0.63592        0.40514
H         -7.87934        0.15407        0.29287
C         -6.73700        1.92765        0.79455
H         -7.49578        2.65504        1.04653
S         -5.07327        2.34788        0.86069
C          3.14926        1.28766       -0.32761
N          2.31383        2.23626       -0.74943
S          3.19262        3.58915       -0.92404
N          4.65701        3.04312       -0.48590
C          4.50020        1.75481       -0.17929
C          5.52806        0.87600        0.25069
H          6.54648        1.22870        0.35745
C          5.17922       -0.41581        0.52533
C          6.19922       -1.32492        0.97042
N          7.04356       -2.03429        1.32435
C          3.81642       -0.89371        0.39606
C          3.57471       -2.25424        0.77971
N          3.41686       -3.35677        1.10015
H         -3.09509       -1.50561       -0.37644
H         -2.52237        1.39041        0.46322
