33
COMP42_310002.log	Energy: -1527611.9107687
C          1.90644        1.15440       -0.06831
C          0.45517        1.23594       -0.01554
C         -0.34087        2.36843        0.07837
C          0.09346        3.72245        0.15909
N          0.41601        4.83413        0.22658
C         -1.72168        2.04484        0.09335
F         -2.65570        2.98969        0.17963
C         -2.00433        0.71215        0.01480
S         -0.52511       -0.19592       -0.07844
C         -3.30966        0.08418        0.01029
S         -4.79687        0.98801        0.11564
C         -5.74798       -0.43217        0.04764
H         -6.82668       -0.37413        0.08354
C         -4.98640       -1.56639       -0.05227
C         -5.50512       -2.89290       -0.12933
N         -5.93011       -3.96879       -0.19187
C         -3.59675       -1.25019       -0.07215
F         -2.66324       -2.19173       -0.16295
C          2.72945        0.05402       -0.10579
C          2.59441       -1.42692       -0.09541
O          1.61923       -2.13700       -0.06493
N          3.92181       -1.88012       -0.10939
O          4.21773       -3.19589       -0.26998
C          4.41808       -3.82607        0.99911
C          4.91074       -0.88119       -0.18020
O          6.09833       -1.06523       -0.22575
C          4.11186        0.37030       -0.15728
C          4.37266        1.70016       -0.16268
H          5.32772        2.20627       -0.19693
S          2.90591        2.59876       -0.10570
H          4.64492       -4.86542        0.76050
H          3.50627       -3.77124        1.60136
H          5.26212       -3.36834        1.52337
