25
COMP24_000300.log	Energy: -1223065.7069873
C         -0.77440        0.12902       -0.00884
C          0.67968       -0.02058       -0.00827
C          1.59097        0.84111       -0.56910
H          1.31781        1.72427       -1.13110
C          2.92134        0.42245       -0.33147
S          4.49102        1.02912       -0.74979
C          5.24519       -0.29678        0.08145
H          6.32479       -0.36053        0.10649
C          4.36150       -1.16355        0.64877
H          4.65195       -2.04538        1.20525
C          3.01993       -0.74445        0.40984
S          1.46137       -1.37272        0.80159
C         -1.64217       -1.01662       -0.10932
N         -1.23933       -2.28361       -0.20113
S         -2.57811       -3.19502       -0.28927
N         -3.71989       -2.04223       -0.22913
C         -3.07293       -0.88024       -0.13032
C         -3.68104        0.40005       -0.05958
H         -4.75894        0.50217       -0.08422
C         -2.85584        1.48369        0.04097
C         -3.44571        2.79168        0.12035
N         -3.95066        3.83239        0.17930
C         -1.41191        1.35656        0.08457
C         -0.66956        2.57080        0.26319
N         -0.10645        3.57325        0.40949
