56
COMP82_430002.log	Energy: -1595480.5919036
C          0.77085        0.44236       -0.36397
C          2.23598        0.53192       -0.40730
C          2.99186        1.63332       -0.72419
O          2.54726        2.85389       -1.08246
C          4.39831        1.38528       -0.66145
C          5.36500        2.39961       -0.92711
N          6.14442        3.22920       -1.14703
C          4.69463        0.08549       -0.29494
S          3.25211       -0.82408       -0.04136
C          6.00622       -0.53191       -0.15163
S          7.25892       -0.23393       -1.29959
C          8.35469       -1.28304       -0.48356
H          9.36058       -1.41940       -0.85606
C          7.78555       -1.84543        0.62168
O          8.33850       -2.70538        1.50091
C          6.43163       -1.41987        0.81879
C          5.65196       -1.85079        1.93233
N          5.02598       -2.20807        2.84044
C          0.09511       -0.65573       -0.90811
C         -1.29433       -0.74659       -0.88364
C         -2.04608        0.27798       -0.30751
C         -3.48749        0.56210       -0.15084
C         -3.55223        1.98212        0.38854
O         -4.48596        2.73186        0.56853
N         -2.24649        2.29594        0.72856
O         -1.86662        3.58951        0.96680
C         -2.02477        3.90350        2.35265
C         -1.34064        1.37787        0.21748
C          0.03425        1.48877        0.21563
C         -4.59032       -0.22265       -0.29833
C         -4.50556       -1.72575       -0.53508
O         -3.57286       -2.43398       -0.84756
N         -5.76937       -2.20359       -0.25476
O         -6.15035       -3.45823       -0.65035
C         -5.86305       -4.40820        0.37673
C         -6.70616       -1.17687       -0.15888
C         -8.07786       -1.30755       -0.08774
C         -8.82320       -0.13077       -0.01414
H         -9.90597       -0.19047        0.04148
C         -8.19594        1.11213       -0.02334
C         -6.80752        1.22002       -0.09828
C         -6.03202        0.06004       -0.15441
H          1.58930        2.81824       -1.21722
H          9.25425       -2.88035        1.25344
H          0.66357       -1.44890       -1.38377
H         -1.78801       -1.60154       -1.31872
H         -1.65923        4.92652        2.45062
H         -1.42633        3.22818        2.97292
H         -3.07925        3.85211        2.63538
H          0.51585        2.33929        0.68681
H         -6.24657       -5.35541       -0.00531
H         -6.37570       -4.14063        1.30670
H         -4.78463       -4.47950        0.54087
H         -8.54251       -2.28627       -0.11017
H         -8.79239        2.01751        0.02039
H         -6.33409        2.18919       -0.11576
