58
COMP87_320002.log	Energy: -2126445.6560012
C         -0.36522       -0.65677       -0.22369
C          1.09047       -0.86279       -0.27237
C          1.81217       -1.99183       -0.55335
Cl         1.12247       -3.51614       -0.98994
C          3.22974       -1.80283       -0.51314
C          4.15517       -2.84939       -0.79191
N          4.92310       -3.69063       -1.01153
C          3.58699       -0.50375       -0.19285
S          2.16856        0.45279        0.05467
C          4.87805        0.14216       -0.03440
C          6.07636       -0.47096       -0.08736
C          7.36831        0.17501        0.06950
C          7.73007        1.49949        0.25975
C          6.81336        2.58640        0.34118
N          6.05439        3.46118        0.40711
C          9.14859        1.66908        0.36489
Cl         9.89021        3.20928        0.60421
C          9.84045        0.50393        0.25598
H         10.91110        0.36785        0.30240
S          8.77983       -0.82603        0.02264
C         -0.94028        0.46714       -0.82486
C         -2.31456        0.69661       -0.78335
C         -3.14752       -0.20847       -0.12745
C         -4.60724       -0.34099        0.08103
C         -4.79268       -1.70598        0.73023
O         -5.79225       -2.34262        0.98800
N         -3.51726       -2.14462        1.00783
O         -3.25152       -3.37391        1.53114
C         -3.34168       -4.38638        0.52083
C         -2.53656       -1.34030        0.44832
C         -1.18116       -1.58411        0.43780
C         -5.63578        0.52894       -0.12016
C         -5.41865        1.98724       -0.51228
O         -4.42779        2.57507       -0.89025
N         -6.63369        2.60061       -0.29847
O         -6.89898        3.84394       -0.80459
C         -6.51179        4.85034        0.13284
C         -7.65681        1.68322       -0.07659
C         -9.00932        1.94773       -0.00993
C         -9.85713        0.86279        0.21270
H        -10.92864        1.02797        0.27197
C         -9.34421       -0.42395        0.35040
C         -7.97312       -0.66743        0.27591
C         -7.09573        0.39908        0.06867
H          4.82928        1.21178        0.14561
H          6.12467       -1.54230       -0.25670
H         -0.31024        1.16842       -1.36322
H         -2.73142        1.56856       -1.26192
H         -3.07944       -5.31388        1.03061
H         -2.62855       -4.18800       -0.28702
H         -4.36155       -4.44653        0.13190
H         -0.77403       -2.45801        0.93154
H         -6.80216        5.79280       -0.33335
H         -5.43032        4.82763        0.29076
H         -7.04062        4.71890        1.08271
H         -9.38298        2.95612       -0.14449
H        -10.01911       -1.25774        0.51373
H         -7.58879       -1.66992        0.37883
