41
COMP69_000000.log	Energy: -1123005.7778625
C         -1.83855       -0.78451        0.00948
C         -0.41765       -0.55564        0.01098
C          0.14921        0.70985        0.01675
C          1.55166        0.66655        0.01129
C          2.05247       -0.61856        0.00165
S          0.82285       -1.80792       -0.00118
C          3.49491       -0.55741       -0.00482
C          3.87954        0.76401        0.00054
C          2.67416        1.69039        0.01101
C          2.62678        2.56996       -1.24953
C          2.63976        2.55868        1.27940
C          5.28963        0.92182       -0.00681
C          5.93219       -0.28515       -0.01758
H          6.99787       -0.46921       -0.02506
S          4.83720       -1.63203       -0.01879
C         -2.82606        0.18474        0.00958
C         -3.04465        1.61556        0.00324
O         -2.29606        2.58688        0.00658
N         -4.46197        1.73085       -0.00722
C         -5.13513        3.00898       -0.03119
C         -5.06717        0.49301       -0.01065
H         -6.14553        0.40591       -0.02103
C         -4.10147       -0.46176        0.00206
C         -3.89046       -1.89855        0.00168
O         -4.64691       -2.84724       -0.00179
N         -2.46539       -2.02565        0.00554
C         -1.86533       -3.34104        0.01172
H         -0.46038        1.61053        0.02253
H          2.65533        1.95664       -2.15493
H          3.47964        3.25715       -1.26795
H          1.70733        3.16470       -1.26222
H          2.68048        1.93781        2.17921
H          1.71949        3.15154        1.30853
H          3.49138        3.24764        1.29387
H          5.81080        1.87210       -0.00460
H         -4.36457        3.77685        0.05562
H         -5.83191        3.09848        0.80774
H         -5.67780        3.15179       -0.97125
H         -2.69423       -4.05149        0.01120
H         -1.26108       -3.50203        0.90957
H         -1.25555       -3.50832       -0.88110
