29
COMP22_030100.log	Energy: -1396136.4476883
C          1.90808       -0.30953       -0.11541
C          0.51394        0.13880       -0.07791
C          0.06147        1.42458        0.08204
H          0.71561        2.27572        0.20347
C         -1.35562        1.51954        0.08873
C         -2.03788        2.76259        0.26946
N         -2.57349        3.78061        0.41405
C         -1.98676        0.29894       -0.06219
S         -0.82851       -0.96434       -0.22849
C         -3.41570        0.01791       -0.12047
S         -4.48371        1.00071       -1.05894
C         -5.84749        0.04737       -0.63059
H         -6.82830        0.30649       -1.00451
C         -5.51440       -0.98579        0.18940
H         -6.21858       -1.70628        0.58518
C         -4.11746       -1.00911        0.48527
C         -3.53069       -1.98013        1.35425
N         -3.07863       -2.77913        2.06247
C          3.02101        0.59866        0.05307
N          2.94099        1.91047        0.25744
S          4.46389        2.46977        0.38176
N          5.28828        1.08359        0.18351
C          4.38437        0.12273        0.01082
C          4.68450       -1.25307       -0.19953
H          5.70418       -1.61452       -0.23257
C          3.62531       -2.08049       -0.35521
F          3.78512       -3.38437       -0.55902
C          2.27045       -1.61531       -0.31438
F          1.34617       -2.56171       -0.48845
