58
COMP97_240003.log	Energy: -2292466.9361383
C          1.03271       -0.38428        0.37832
C         -0.38059       -0.74004        0.56158
C         -0.99144       -1.59707        1.45515
O         -0.39190       -2.46222        2.27728
C         -2.41150       -1.43268        1.47999
Cl        -3.40114       -2.39381        2.51708
C         -2.89296       -0.47966        0.62074
S         -1.57885        0.24402       -0.25175
C         -4.28076       -0.13053        0.39713
C         -4.69667        0.87370       -0.39604
C         -6.06762        1.26428       -0.66863
C         -7.28095        0.66566       -0.42738
Cl        -7.52841       -0.88279        0.32123
C         -8.41287        1.41594       -0.87904
O         -9.69629        1.02315       -0.75229
C         -8.04447        2.59011       -1.46667
H         -8.69973        3.33830       -1.88691
S         -6.33521        2.78201       -1.47281
C          1.30840        1.01430        0.46998
C          2.56340        1.52901        0.32354
C          2.76408        2.99566        0.47144
O          1.86996        3.77752        0.70837
N          4.07826        3.43974        0.31420
C          4.31004        4.86207        0.50883
O          4.56678        5.34075        1.57307
O          4.19099        5.48434       -0.64916
C          4.40884        6.89996       -0.59366
C          5.19706        2.66619       -0.00700
O          6.28265        3.18424       -0.15179
C          4.95588        1.20649       -0.15039
C          6.01084        0.38137       -0.47206
H          6.99666        0.81152       -0.60950
C          5.78625       -0.99240       -0.63127
C          4.52654       -1.52456       -0.44536
C          4.34313       -2.97324       -0.66544
O          5.22100       -3.73751       -1.00238
N          3.04273       -3.43539       -0.45587
C          2.84879       -4.87603       -0.55886
O          3.00928       -5.62021        0.36178
O          2.49293       -5.17746       -1.79223
C          2.27672       -6.57539       -2.02771
C          1.93968       -2.70200       -0.04179
O          0.89809       -3.31260        0.16352
C          2.11018       -1.24165        0.11162
C          3.42401       -0.70687       -0.08882
C          3.65783        0.68019        0.03288
H          0.23281       -2.97521        1.72542
H         -4.99295       -0.74228        0.93880
H         -3.94974        1.49086       -0.89450
H         -9.72163        0.16541       -0.30536
H          0.50178        1.70006        0.70462
H          4.26997        7.25399       -1.61355
H          5.42264        7.10687       -0.24492
H          3.68534        7.36248        0.08068
H          6.59264       -1.66250       -0.90911
H          1.99994       -6.65208       -3.07747
H          1.47352       -6.94117       -1.38497
H          3.19389       -7.13212       -1.82567
