66
COMP85_000023.log	Energy: -1230902.1757079
C         -1.51026        0.34169       -0.22994
C         -2.99074        0.32210       -0.31410
C         -3.72005       -0.56612        0.47687
C         -5.10417       -0.55200        0.35950
N         -6.04682       -1.29688        1.03910
O         -5.74446       -2.37247        1.82740
C         -5.59107       -3.55064        1.03073
C         -7.31727       -1.00495        0.58149
C         -8.54114       -1.55391        0.95401
C         -9.67496       -1.04533        0.33524
H        -10.64794       -1.44943        0.59824
C         -9.59093       -0.01866       -0.61778
C         -8.36319        0.52008       -0.97770
C         -7.20395        0.02124       -0.38164
C         -5.78926        0.31175       -0.52104
C         -5.04469        1.20114       -1.29615
C         -3.66262        1.20056       -1.18948
C         -0.78630       -0.84892       -0.09844
C          0.59879       -0.85358       -0.02921
C          1.30258        0.35185       -0.10050
C          2.71665        0.70116        0.04768
C          2.76356        2.21155        0.02808
O          3.73212        2.92875        0.03724
N          1.43090        2.65606       -0.13232
C          1.00681        3.98347       -0.27943
O         -0.08916        4.28814       -0.68875
O          1.93930        4.84526        0.10318
C          1.58985        6.22005       -0.06452
C          0.55893        1.54323       -0.20019
C         -0.82231        1.56062       -0.27209
C          3.84951       -0.05885        0.11935
C          3.88018       -1.49405       -0.34467
O          2.98309       -2.14262       -0.82188
N          5.21938       -1.93431       -0.21613
C          5.72799       -3.18665       -0.58210
O          6.90545       -3.46030       -0.54790
O          4.77026       -4.02519       -0.95577
C          5.22941       -5.31750       -1.35391
C          6.01324       -0.89612        0.33227
C          7.35181       -0.94733        0.69055
C          7.90658        0.18276        1.28649
H          8.95497        0.16569        1.56868
C          7.13874        1.31720        1.53110
C          5.79987        1.35830        1.16070
C          5.22164        0.25156        0.53269
H         -3.23234       -1.22251        1.18998
H         -5.34134       -4.34256        1.73812
H         -4.78098       -3.42415        0.30445
H         -6.52453       -3.78939        0.51009
H         -8.59682       -2.33608        1.70340
H        -10.49907        0.35877       -1.07697
H         -8.30384        1.31359       -1.71699
H         -5.53916        1.87996       -1.98476
H         -3.07832        1.87152       -1.81124
H         -1.31639       -1.79595       -0.08076
H          1.12753       -1.78985        0.05327
H          2.46068        6.77703        0.27765
H          0.71090        6.46853        0.53460
H          1.38352        6.43609       -1.11514
H         -1.35513        2.49825       -0.33838
H          4.33124       -5.85718       -1.65020
H          5.72542       -5.82073       -0.52070
H          5.92561       -5.23733       -2.19164
H          7.93728       -1.83644        0.51153
H          7.58485        2.18357        2.00854
H          5.21740        2.24773        1.34218
