54
COMP82_230002.log	Energy: -2077887.7710509
C          0.45926        0.57208       -0.30001
C          1.92469        0.69927       -0.35738
C          2.70508        1.80154       -0.58184
Cl         2.09976        3.38588       -0.91132
C          4.10881        1.52759       -0.56364
C          5.10608        2.53022       -0.75638
N          5.91611        3.34369       -0.91633
C          4.38324        0.19703       -0.31917
S          2.92179       -0.69647       -0.11543
C          5.68537       -0.45590       -0.25379
S          6.90237       -0.14126       -1.43859
C          8.00048       -1.24113       -0.71043
H          8.98888       -1.39339       -1.11962
C          7.45973       -1.83166        0.38889
Cl         8.28527       -2.98646        1.36788
C          6.12589       -1.38998        0.66417
C          5.36093       -1.84154        1.78088
N          4.74081       -2.21254        2.68705
C         -0.18497       -0.46535       -0.98027
C         -1.56957       -0.62142       -0.93339
C         -2.34063        0.27185       -0.19175
C         -3.78765        0.46474        0.05697
C         -3.88793        1.77984        0.81741
O         -4.84725        2.44515        1.14542
N         -2.58579        2.12658        1.10201
O         -2.24392        3.28805        1.72586
C         -2.28956        4.38962        0.81022
C         -1.65970        1.31812        0.46247
C         -0.29273        1.48711        0.44774
C         -4.86479       -0.33183       -0.18786
C         -4.73379       -1.76168       -0.70482
O         -3.78953       -2.35871       -1.17531
N         -5.96783       -2.33548       -0.48718
O         -6.31339       -3.51624       -1.08690
C         -5.97007       -4.61597       -0.24215
C         -6.93712       -1.38983       -0.16244
C         -8.29796       -1.59610       -0.06658
C         -9.08417       -0.49243        0.26404
H        -10.15982       -0.61255        0.35002
C         -8.50556        0.75601        0.47498
C         -7.12728        0.94094        0.37055
C         -6.31039       -0.14742        0.05643
H          0.39836       -1.15419       -1.58342
H         -2.04171       -1.42726       -1.47287
H         -1.96987        5.25240        1.39535
H         -3.30889        4.53947        0.44509
H         -1.59815        4.22548       -0.02380
H          0.16956        2.29334        1.00423
H         -6.32999       -5.49910       -0.77176
H         -6.46921       -4.52802        0.72855
H         -4.88628       -4.67356       -0.11061
H         -8.72450       -2.57356       -0.25901
H         -9.13326        1.60598        0.72182
H         -6.69168        1.91457        0.53040
