35
COMP42_230003.log	Energy: -2051026.4296555
C         -1.62304        1.48369        0.46182
C         -0.21564        1.37113        0.09828
C          0.63175        2.32085       -0.41725
Cl         0.17760        3.93202       -0.82875
C          1.96567        1.85179       -0.60605
C          3.02076        2.66948       -1.11020
N          3.87698        3.33320       -1.52201
C          2.11728        0.53380       -0.21995
S          0.63167       -0.12032        0.34635
C          3.32297       -0.28410       -0.28879
S          4.31216       -0.30123       -1.70326
C          5.40406       -1.43020       -1.01337
H          6.27167       -1.77097       -1.55997
C          5.02744       -1.78705        0.24452
Cl         5.89950       -2.89610        1.23485
C          3.82824       -1.13519        0.67519
C          3.24697       -1.31880        1.96549
N          2.77181       -1.46719        3.01211
C         -2.63429        0.57012        0.32205
C         -2.80620       -0.78262       -0.26338
O         -1.98353       -1.51774       -0.74287
N         -4.18939       -1.07283       -0.08784
C         -4.81434       -2.29652       -0.44860
O         -5.66324       -2.82543        0.21375
O         -4.33328       -2.72828       -1.60685
C         -4.83513       -3.99977       -2.02889
C         -4.90261       -0.03321        0.59033
O         -6.07501       -0.02695        0.83979
C         -3.87573        1.00402        0.83721
C         -3.84240        2.24495        1.38809
H         -4.64647        2.81211        1.83670
S         -2.25378        2.89742        1.27453
H         -4.31581       -4.21732       -2.96058
H         -5.91398       -3.94546       -2.18940
H         -4.61719       -4.76217       -1.27793
