30
COMP52_220300.log	Energy: -2675041.0999665
C          1.43051        0.53248        0.30271
C          0.01613        0.21993        0.46168
C         -0.57232       -0.71519        1.27615
Cl         0.29307       -1.74175        2.35393
C         -1.99516       -0.72880        1.17285
Cl        -2.99747       -1.76221        2.11170
C         -2.47445        0.18648        0.27337
S         -1.18093        1.06969       -0.45745
C         -3.86292        0.44843       -0.09321
S         -4.64478        1.93951        0.32728
C         -6.11322        1.45169       -0.41649
H         -6.97826        2.09938       -0.42126
C         -6.01493        0.20611       -0.95635
Cl        -7.30654       -0.58745       -1.77913
C         -4.72001       -0.37307       -0.77569
Cl        -4.28437       -1.92403       -1.37929
C          2.03983        1.76965        0.35344
C          1.35465        2.99244        0.65169
N          0.78714        3.97228        0.89568
N          3.38731        1.79203        0.12428
C          3.82154        0.58689       -0.10187
S          2.62367       -0.66671       -0.05871
C          5.22000        0.28199       -0.36756
S          6.42755        1.53465       -0.39175
C          7.60059        0.33753       -0.74259
H          8.64565        0.57633       -0.87993
C          7.00832       -0.89533       -0.81556
C          7.71767       -2.10821       -1.09813
N          8.31522       -3.07273       -1.32976
N          5.65419       -0.92094       -0.60129
