25
COMP38_000000.log	Energy: -883843.6019868
C         -0.87972       -0.19617       -0.12165
C          0.52208       -0.60192       -0.26199
C          1.61993        0.10289        0.14647
O          1.56435        1.27194        0.82993
C          2.80481        1.97055        0.80113
C          3.95512        1.02913        1.11586
O          4.06373        0.01213        0.12619
C          2.85849       -0.53673       -0.18214
C          2.68323       -1.71563       -0.83703
H          3.44984       -2.39195       -1.18520
S          1.01060       -2.07024       -1.05786
C         -1.30010        1.07345       -0.52936
F         -0.43495        1.92011       -1.08509
C         -2.62090        1.47611       -0.38174
F         -2.97257        2.69986       -0.78296
C         -3.56982        0.62388        0.15718
H         -4.60042        0.93840        0.26587
C         -3.16995       -0.64159        0.55195
F         -4.05631       -1.48934        1.07864
C         -1.84803       -1.04465        0.42001
F         -1.50967       -2.26955        0.82755
H          2.72943        2.75662        1.55454
H          2.94734        2.42711       -0.18646
H          3.80329        0.57153        2.10228
H          4.90688        1.56381        1.11030
