34
COMP52_440300.log	Energy: -1710226.4251123
C          0.83900        0.26594        0.24682
C         -0.51777       -0.21695        0.26867
C         -0.93809       -1.50733        0.50935
O         -0.19756       -2.60878        0.81243
C         -2.33730       -1.68111        0.39383
O         -2.94879       -2.87030        0.59925
C         -3.00405       -0.52507        0.06652
S         -1.88813        0.80547       -0.08996
C         -4.42682       -0.35405       -0.11045
S         -5.57149       -1.66256        0.09326
C         -6.90768       -0.62770       -0.27546
H         -7.91537       -1.02006       -0.27980
C         -6.49931        0.64171       -0.53854
O         -7.22138        1.74860       -0.86840
C         -5.08487        0.80137       -0.44562
O         -4.46305        1.97899       -0.66983
C          1.34412        1.54197        0.44813
C          0.56010        2.69152        0.77873
N         -0.06812        3.62683        1.05111
N          2.70226        1.68573        0.34436
C          3.26523        0.54988        0.07522
S          2.17520       -0.79575       -0.10989
C          4.70059        0.37554       -0.07045
S          5.79382        1.72102        0.09789
C          7.09409        0.64819       -0.20862
H          8.12256        0.97959       -0.22879
C          6.61932       -0.61986       -0.41100
C          7.45372       -1.75091       -0.69185
N          8.15030       -2.64854       -0.91620
N          5.25799       -0.77021       -0.33145
H          0.59779       -2.36708        1.30598
H         -2.26979       -3.51578        0.84341
H         -8.16202        1.53936       -0.88028
H         -5.13599        2.64955       -0.85526
