29
COMP22_130100.log	Energy: -1520632.2459557
C          2.12906        0.42494        0.12085
C          0.74463       -0.03509        0.24603
C          0.30113       -1.15844        0.88129
F          1.08483       -1.99196        1.54520
C         -1.10555       -1.36253        0.81362
C         -1.74953       -2.46065        1.45461
N         -2.25877       -3.36127        1.97709
C         -1.73689       -0.35562        0.10631
S         -0.59441        0.80261       -0.46560
C         -3.15554       -0.22057       -0.18974
S         -4.12015       -1.60139       -0.57607
C         -5.53564       -0.65181       -0.79772
H         -6.48322       -1.10092       -1.05539
C         -5.26938        0.66273       -0.58917
F         -6.16696        1.63390       -0.68161
C         -3.91274        0.93610       -0.24195
C         -3.44633        2.25236        0.04336
N         -3.08331        3.33017        0.26706
C          3.16811       -0.45930       -0.33057
N          3.00197       -1.72559       -0.69849
S          4.47272       -2.27712       -1.12478
N          5.36893       -0.94292       -0.86827
C          4.53110       -0.00426       -0.43289
C          4.88018        1.33750       -0.10307
H          5.89992        1.69290       -0.18068
C          3.87455        2.15032        0.30302
F          4.09761        3.41970        0.62994
C          2.51642        1.70086        0.41587
F          1.63445        2.60287        0.83518
