64
COMP87_440003.log	Energy: -1764974.5191434
C          0.53575        0.45792        0.04818
C          1.99070        0.55618        0.13054
C          2.73294        1.50407        0.78769
O          2.32350        2.57454        1.51679
C          4.14047        1.29222        0.71009
O          5.02142        2.12353        1.31231
C          4.48578        0.17694       -0.00968
S          3.04904       -0.62021       -0.59924
C          5.79167       -0.37764       -0.30450
C          6.97381        0.19081        0.01802
C          8.26079       -0.43795       -0.22585
C          8.57097       -1.77240       -0.21157
O          7.74441       -2.82618        0.04334
C          9.95156       -2.05298       -0.45409
O         10.44118       -3.31490       -0.46825
C         10.68344       -0.92323       -0.65049
H         11.74146       -0.85520       -0.85512
S          9.70205        0.49679       -0.52919
C         -0.11506       -0.78260       -0.01029
C         -1.49742       -0.87312       -0.04670
C         -2.27965        0.28575        0.01480
C         -3.71700        0.54735       -0.10106
C         -3.85636        2.05095       -0.09674
O         -4.86369        2.71133       -0.07551
N         -2.54561        2.57838        0.00767
C         -2.19773        3.91767        0.22979
O         -1.11805        4.25572        0.66093
O         -3.17508        4.74450       -0.10502
C         -2.90474        6.12750        0.13701
C         -1.61106        1.52233        0.05380
C         -0.23306        1.63218        0.04362
C         -4.79968       -0.28413       -0.15326
C         -4.72373       -1.72168        0.30162
O         -3.78664       -2.29316        0.80061
N         -6.01644       -2.26867        0.14110
C         -6.41871       -3.57255        0.46195
O         -7.57447       -3.92666        0.46686
O         -5.38572       -4.35727        0.73586
C         -5.73001       -5.69822        1.08918
C         -6.89159       -1.28247       -0.37733
C         -8.22352       -1.43071       -0.73184
C         -8.86909       -0.33357       -1.29740
H         -9.91419       -0.42720       -1.57644
C         -8.19592        0.86517       -1.51292
C         -6.86273        1.00343       -1.14640
C         -6.19372       -0.07093       -0.55232
H          1.36487        2.55728        1.64649
H          4.51046        2.79624        1.78631
H          5.79037       -1.31262       -0.86361
H          6.98027        1.16452        0.49955
H          6.96024       -2.49966        0.50845
H          9.70988       -3.90936       -0.24822
H          0.47152       -1.69607       -0.00557
H         -1.96578       -1.84373       -0.08753
H         -3.80709        6.65041       -0.17511
H         -2.04353        6.45599       -0.44883
H         -2.70836        6.29808        1.19765
H          0.23126        2.60607       -0.02268
H         -4.78022       -6.18805        1.29752
H         -6.24586       -6.19102        0.26198
H         -6.37199       -5.70871        1.97275
H         -8.73656       -2.36714       -0.57154
H         -8.71205        1.70578       -1.96504
H         -6.35513        1.94181       -1.30402
