44
COMP72_100003.log	Energy: -1937471.6857305
C         -0.59991       -1.59246       -0.46544
C         -1.86233       -0.87526       -0.51379
C         -2.16892        0.24737       -1.23265
F         -1.30066        0.85854       -2.02933
C         -3.49457        0.71653       -1.08037
H         -3.87106        1.61080       -1.56111
C         -4.22002       -0.07702       -0.23232
S         -3.26867       -1.39928        0.36713
C         -5.60750        0.07561        0.17707
S         -6.76969        0.79554       -0.89755
C         -8.03740        0.62484        0.25759
H         -9.04297        0.96077        0.05309
C         -7.56955        0.02876        1.38661
F         -8.32934       -0.23261        2.45106
C         -6.18671       -0.29125        1.36195
H         -5.65959       -0.73970        2.19509
C          0.67945       -1.10914       -0.29541
C          1.05151        0.29199        0.00384
O          0.24549        1.17487        0.22946
C          2.51903        0.53570        0.08799
C          3.07193        1.78009        0.25556
C          2.37985        3.10534        0.26737
O          2.45362        3.88785        1.18250
O          1.73013        3.30912       -0.87499
C          0.88037        4.45747       -0.89677
S          4.76588        1.69240        0.50084
C          4.76252       -0.02783        0.36603
C          6.03144       -0.76922        0.61573
O          6.12024       -1.81273        1.20624
O          7.07499       -0.06703        0.14688
C          8.35790       -0.64213        0.40567
C          3.49804       -0.51033        0.12380
C          3.12955       -1.91804       -0.20173
O          3.94017       -2.80202       -0.38663
C          1.67014       -2.14626       -0.35096
C          1.13421       -3.38483       -0.54667
H          1.67426       -4.31972       -0.60805
S         -0.57078       -3.31726       -0.68970
H          0.43305        4.46776       -1.88946
H          1.45613        5.36893       -0.72149
H          0.10841        4.35722       -0.13047
H          9.08070        0.06340       -0.00162
H          8.44386       -1.61201       -0.08922
H          8.50821       -0.77313        1.47979
