68
COMP85_000033.log	Energy: -1302051.0620022
C          1.24886        0.69432       -0.38113
C          2.72875        0.75326       -0.46879
C          3.48197       -0.34608       -0.04725
C          4.86767       -0.28047       -0.14316
N          5.86345       -1.22462        0.20793
C          5.70719       -2.49656        0.73443
O          6.62080       -3.24365        0.99866
O          4.41700       -2.80239        0.91610
C          4.18064       -4.10485        1.45219
C          7.12914       -0.66223       -0.08480
C          8.40556       -1.19518        0.07999
C          9.48284       -0.40316       -0.30271
H         10.48769       -0.79697       -0.18339
C          9.30410        0.87868       -0.83398
C          8.02799        1.40009       -0.99286
C          6.93488        0.62299       -0.61509
C          5.50624        0.86473       -0.64965
C          4.74983        1.95770       -1.06473
C          3.36883        1.89801       -0.97242
C          0.56490       -0.48678       -0.69056
C         -0.81456       -0.57372       -0.58611
C         -1.55159        0.53638       -0.16514
C         -2.98642        0.79950       -0.04692
C         -3.10118        2.26292        0.30453
O         -4.09863        2.89647        0.54009
N         -1.77900        2.76207        0.40624
C         -1.40007        4.06805        0.74333
O         -0.24700        4.42187        0.83246
O         -2.44720        4.85606        0.94574
C         -2.12362        6.20071        1.30282
C         -0.85585        1.73289        0.09314
C          0.52246        1.82709        0.00659
C         -4.07698       -0.01834       -0.13950
C         -3.96147       -1.51705       -0.00113
O         -2.97919       -2.16863        0.25249
N         -5.27226       -2.03715       -0.10268
C         -5.64648       -3.38298        0.00005
O         -6.79300       -3.74559        0.12562
O         -4.60108       -4.19590       -0.07914
C         -4.91134       -5.58373        0.05303
C         -6.19439       -0.97874       -0.29051
C         -7.56224       -1.07177       -0.49503
C         -8.26114        0.10748       -0.74284
H         -9.33423        0.05782       -0.90078
C         -7.60542        1.33338       -0.79881
C         -6.23452        1.41386       -0.58439
C         -5.50874        0.25196       -0.30572
H          2.99054       -1.21316        0.36793
H          3.09876       -4.18222        1.55331
H          4.66634       -4.21331        2.42407
H          4.55923       -4.87101        0.77211
H          8.54869       -2.18424        0.49037
H         10.16942        1.46731       -1.12245
H          7.87987        2.39369       -1.40546
H          5.23657        2.84287       -1.46293
H          2.77038        2.73674       -1.31413
H          1.12215       -1.35114       -1.03764
H         -1.31127       -1.50172       -0.82130
H         -3.08426        6.69395        1.44247
H         -1.55425        6.68306        0.50507
H         -1.54094        6.22275        2.22642
H          1.02330        2.75091        0.25517
H         -3.95398       -6.09621       -0.02725
H         -5.58939       -5.90319       -0.74149
H         -5.37414       -5.78107        1.02251
H         -8.06291       -2.02785       -0.45918
H         -8.16403        2.24061       -1.00507
H         -5.73750        2.37032       -0.61643
