46
COMP67_410003.log	Energy: -1553764.9617822
C         -2.16638       -0.73811       -0.03954
C         -0.78289       -1.03715        0.22552
C         -0.24326       -2.12342        0.86363
F         -0.94511       -3.13903        1.38389
C          1.16246       -2.11211        0.98357
O          1.88790       -3.08335        1.58133
C          1.71752       -0.97652        0.43875
S          0.49079        0.06343       -0.21445
C          3.13063       -0.66828        0.41011
C          3.66667        0.50963        0.02819
C          5.09005        0.76822       -0.07313
C          6.09186       -0.11612       -0.39877
O          5.97248       -1.42292       -0.71659
C          7.37469        0.50959       -0.42112
F          8.47400       -0.18191       -0.71370
C          7.35141        1.83440       -0.13177
H          8.19195        2.51057       -0.08485
S          5.74158        2.36904        0.17550
C         -2.78416        0.47586       -0.11337
C         -2.51170        1.90421        0.01905
O         -1.48260        2.52346        0.12559
N         -3.84899        2.47882       -0.04299
C         -4.23704        3.82630        0.01742
O         -5.39446        4.16349       -0.06314
O         -3.19873        4.63032        0.17337
C         -3.51913        6.02202        0.24533
C         -4.81643        1.48074       -0.18946
H         -5.86040        1.75556       -0.22177
C         -4.19733        0.28537       -0.24631
C         -4.48277       -1.14489       -0.29916
O         -5.50394       -1.75605       -0.46895
N         -3.15977       -1.73789       -0.15047
C         -2.88355       -3.06583       -0.55787
O         -1.94037       -3.37432       -1.24141
O         -3.80568       -3.88730       -0.08559
C         -3.68939       -5.24222       -0.52431
H          1.29621       -3.80508        1.83124
H          3.77101       -1.46710        0.77910
H          3.00475        1.33578       -0.23303
H          5.04143       -1.61007       -0.90551
H         -2.56294        6.52538        0.37699
H         -4.17959        6.21845        1.09270
H         -4.00495        6.34972       -0.67627
H         -4.54342       -5.75727       -0.08807
H         -2.75182       -5.67461       -0.16769
H         -3.72309       -5.29570       -1.61459
