51
COMP66_000022.log	Energy: -909087.4913905
C          1.79410        0.45159       -0.14377
C          0.44303       -0.09280       -0.21524
C         -0.70131        0.70453       -0.01993
C         -1.94789        0.12590       -0.10108
C         -3.32224        0.78842        0.06164
O         -3.43650        1.54483        1.24370
C         -3.20275        0.84536        2.44734
O         -3.67825        1.62842       -0.99027
C         -2.85878        2.76396       -1.19685
C         -4.25070       -0.41918       -0.01144
C         -5.62667       -0.43822        0.11869
C         -6.28562       -1.66316       -0.00371
H         -7.36568       -1.70778        0.09905
C         -5.56944       -2.83310       -0.25823
C         -4.18139       -2.80728       -0.39140
C         -3.52778       -1.58828       -0.26249
C         -2.09476       -1.24985       -0.32201
C         -0.97478       -2.05060       -0.50130
C          0.28780       -1.46874       -0.45468
C          2.99792       -0.20430       -0.01281
C          3.56395       -1.52516        0.22686
O          3.11607       -2.65744        0.25660
N          4.94463       -1.21971        0.38961
O          5.88218       -2.15807        0.70021
C          6.24338       -2.91490       -0.45951
C          5.23172        0.11995        0.28319
H          6.24449        0.47317        0.41488
C          4.06412        0.76362        0.02806
C          3.50026        2.08919       -0.14459
O          3.96985        3.19813       -0.25938
N          2.09227        1.81521       -0.15010
O          1.24315        2.75095       -0.68805
C          0.96132        3.78046        0.26369
H         -0.61014        1.75571        0.20820
H         -3.32436        1.57400        3.25079
H         -2.18806        0.42849        2.48953
H         -3.92591        0.03141        2.58607
H         -3.40663        3.40483       -1.88974
H         -1.89739        2.48950       -1.64963
H         -2.68619        3.30665       -0.26139
H         -6.17217        0.48041        0.31066
H         -6.09868       -3.77649       -0.35316
H         -3.63036       -3.72240       -0.58823
H         -1.06942       -3.11995       -0.66327
H          1.16631       -2.09563       -0.56852
H          6.99940       -3.61874       -0.10960
H          6.66520       -2.25950       -1.22980
H          5.37596       -3.45496       -0.84655
H          0.24182        4.42979       -0.23780
H          1.87119        4.33429        0.50256
H          0.51930        3.35967        1.17430
