45
COMP79_000000.log	Energy: -1649645.7970765
C          0.42244       -1.38319        0.27129
C         -0.91684       -0.82047        0.19362
C         -1.40042        0.37049        0.68641
C         -2.78394        0.52239        0.45842
C         -3.34370       -0.54620       -0.20445
S         -2.19540       -1.76273       -0.57120
C         -4.75059       -0.28501       -0.40873
C         -5.05480        0.94207        0.13235
C         -3.82428        1.59376        0.74304
C         -3.99968        1.82295        2.25284
C         -3.47349        2.90984        0.02948
C         -6.42569        1.27961       -0.01594
C         -7.11993        0.29787       -0.66702
H         -8.17190        0.28306       -0.91727
S         -6.12044       -1.05127       -1.10884
C          1.68167       -0.80543        0.21821
C          2.00245        0.63115        0.03912
O          1.16176        1.52033        0.04372
C          3.44064        0.93775       -0.13952
C          3.92335        2.19987       -0.37881
C          3.18150        3.49167       -0.52597
S          5.64925        2.15755       -0.50028
C          5.74110        0.45362       -0.22448
C          7.05570       -0.26124       -0.20050
C          4.47990       -0.05541       -0.05167
C          4.18002       -1.47437        0.19607
O          5.03665       -2.34022        0.29478
C          2.73311       -1.78757        0.29459
C          2.27583       -3.06370        0.41646
H          2.87735       -3.95988        0.48015
S          0.56614       -3.11406        0.45076
H         -0.76207        1.09089        1.17659
H         -4.24824        0.88755        2.76251
H         -4.80263        2.54450        2.43985
H         -3.07697        2.22119        2.68867
H         -3.34592        2.74738       -1.04451
H         -2.54123        3.32380        0.42858
H         -4.26773        3.64992        0.17767
H         -6.88436        2.19618        0.33686
H          2.41443        3.40499       -1.29973
H          3.85812        4.31115       -0.78340
H          2.66190        3.73941        0.40413
H          7.88616        0.42413       -0.38972
H          7.06962       -1.05451       -0.95290
H          7.20735       -0.74510        0.76839
