30
COMP52_140000.log	Energy: -1624641.9991837
C          1.35437       -0.16209        0.00105
C         -0.03295        0.24852        0.00078
C         -0.55328        1.50820        0.00087
F          0.17333        2.63936        0.00177
C         -1.96783        1.58613        0.00060
O         -2.65876        2.75000        0.00017
C         -2.55873        0.34884        0.00015
S         -1.33754       -0.90604       -0.00013
C         -3.97258        0.04624       -0.00017
S         -5.20227        1.29315        0.00077
C         -6.48064        0.13430        0.00020
H         -7.51745        0.43536        0.00060
C         -5.97868       -1.12258       -0.00089
F         -6.69502       -2.25867       -0.00151
C         -4.55852       -1.19392       -0.00110
O         -3.86282       -2.35539       -0.00235
C          1.85861       -1.43999        0.00315
H          1.25569       -2.34103        0.00520
N          3.21580       -1.55417        0.00280
C          3.77416       -0.37642        0.00032
S          2.67512        0.96976       -0.00181
C          5.21174       -0.16129       -0.00054
S          6.32527       -1.49796        0.00184
C          7.61893       -0.36059       -0.00093
H          8.65174       -0.67861       -0.00062
C          7.12712        0.91036       -0.00322
H          7.72861        1.81096       -0.00522
N          5.76290        1.01982       -0.00305
H         -2.03107        3.48473        0.00544
H         -4.49002       -3.09071       -0.00085
