46
COMP92_220000.log	Energy: -2489757.5367032
C          1.13122       -0.22860        0.12920
C         -0.31958       -0.30065        0.41482
C         -0.93081       -0.21238        1.62998
Cl        -0.08477        0.10470        3.09917
C         -2.34762       -0.37912        1.55575
Cl        -3.38070       -0.29939        2.93150
C         -2.79459       -0.60344        0.28343
S         -1.46778       -0.61099       -0.83394
C         -4.16430       -0.83685       -0.16762
S         -4.93738       -2.37287        0.06361
C         -6.38223       -1.83461       -0.69167
H         -7.23816       -2.48651       -0.79262
C         -6.27918       -0.54266       -1.10685
Cl        -7.54826        0.31178       -1.90597
C         -5.00471        0.03384       -0.80727
Cl        -4.58286        1.65677       -1.19711
C          1.81833       -1.46075        0.02004
C          3.17100       -1.50584       -0.20862
C          3.85189       -2.82573       -0.31729
O          3.24096       -3.87107       -0.22156
N          5.23169       -2.79738       -0.53516
C          5.94747       -4.06757       -0.64318
C          6.00564       -1.64183       -0.65967
O          7.20308       -1.71984       -0.84913
C          5.29993       -0.33740       -0.54946
C          6.00980        0.83608       -0.65893
H          7.08044        0.78912       -0.82584
C          5.34692        2.07238       -0.55025
C          3.98676        2.12156       -0.34016
C          3.32506        3.44709       -0.22339
O          3.94961        4.48670       -0.29746
N          1.94430        3.43082       -0.02896
C          1.23840        4.70825        0.06658
C          1.14451        2.28831        0.05398
O         -0.05807        2.40732        0.16623
C          1.83181        0.96249       -0.00880
C          3.23245        0.92944       -0.22757
C          3.90453       -0.30790       -0.33026
H          1.27166       -2.39178        0.12706
H          5.22333       -4.86852       -0.51476
H          6.71850       -4.12109        0.12754
H          6.42638       -4.13990       -1.62154
H          5.89291        3.00616       -0.62829
H          1.97691        5.50187       -0.01482
H          0.71640        4.76858        1.02329
H          0.50318        4.78444       -0.73656
