38
COMP62_440000.log	Energy: -1238521.3900769
C          1.89736        0.63902       -0.18158
C          0.58356        0.08234       -0.20939
C          0.25015       -1.24305       -0.48093
O          1.00708       -2.27750       -0.83909
C         -1.15293       -1.47341       -0.44999
O         -1.66043       -2.69683       -0.70812
C         -1.90175       -0.37160       -0.13149
S         -0.87247        1.01283        0.12088
C         -3.33639       -0.29514        0.01238
S         -4.37524       -1.68843       -0.19694
C         -5.79211       -0.75522        0.13706
H         -6.76815       -1.22048        0.12291
C         -5.48592        0.54419        0.39243
O         -6.29728        1.59663        0.69625
C         -4.08678        0.81072        0.32167
O         -3.56766        2.04021        0.54240
C          3.10922       -0.02361        0.00025
C          3.66662       -1.29057        0.35813
O          3.16228       -2.41985        0.51079
N          5.03570       -1.03904        0.52122
C          5.99200       -2.06995        0.86027
C          5.32322        0.30023        0.31691
H          6.32976        0.67310        0.44627
C          4.16950        0.93356       -0.01151
C          3.59111        2.24817       -0.24396
O          4.07762        3.35013       -0.37011
N          2.18539        1.99051       -0.32594
C          1.29116        3.06650       -0.70584
H          1.86207       -2.36644       -0.29745
H         -0.89714       -3.27497       -0.87481
H         -7.21655        1.30853        0.72161
H         -4.29873        2.64116        0.74571
H          5.44745       -3.01338        0.91694
H          6.45862       -1.86652        1.82889
H          6.76681       -2.14591        0.09174
H          1.92806        3.91158       -0.97324
H          0.64362        3.36691        0.12230
H          0.67905        2.78006       -1.56415
