56
COMP82_120003.log	Energy: -2228957.0513184
C          0.97889        0.41412        0.06754
C          2.44401        0.44565        0.14506
C          3.24573        1.29527        0.85368
F          2.79395        2.27836        1.62545
C          4.63810        1.03331        0.73238
Cl         5.81630        1.96537        1.57607
C          4.90669       -0.03289       -0.08325
S          3.43177       -0.69633       -0.71211
C          6.20166       -0.57738       -0.47613
S          7.33478        0.37871       -1.38225
C          8.47929       -0.90418       -1.44880
H          9.43653       -0.78812       -1.93495
C          8.00479       -2.00663       -0.81509
F          8.66749       -3.15159       -0.69997
C          6.70438       -1.83263       -0.25793
Cl         5.90894       -3.08854        0.61358
C          0.30339       -0.79737       -0.11728
C         -1.08051       -0.84432       -0.18494
C         -1.82346        0.33124       -0.05736
C         -3.25217        0.63014       -0.17302
C         -3.35640        2.13477       -0.11488
O         -4.34995        2.81548       -0.13632
N         -2.04065        2.62542        0.07573
C         -1.65958        3.96559        0.23535
O         -0.52414        4.30573        0.47291
O         -2.68177        4.79591        0.08747
C         -2.35935        6.17785        0.25645
C         -1.12504        1.54595        0.08416
C          0.25493        1.61071        0.15885
C         -4.35504       -0.17402       -0.23097
C         -4.31699       -1.61710        0.21638
O         -3.37868       -2.23785        0.64840
N         -5.64344       -2.10076        0.13728
C         -6.09635       -3.37104        0.51926
O         -7.26598       -3.67563        0.54768
O         -5.09609       -4.18394        0.82960
C         -5.49430       -5.49142        1.24561
C         -6.49262       -1.08783       -0.37356
C         -7.83987       -1.18507       -0.68563
C         -8.45329       -0.07350       -1.25909
H         -9.50936       -0.12713       -1.50562
C         -7.73453        1.08755       -1.52704
C         -6.38630        1.17511       -1.20207
C         -5.74954        0.08817       -0.59574
H          0.86232       -1.72594       -0.18259
H         -1.57625       -1.79354       -0.31026
H         -3.30420        6.70417        0.13134
H         -1.63585        6.49705       -0.49700
H         -1.94578        6.35546        1.25144
H          0.75299        2.56030        0.27573
H         -4.56427       -6.01040        1.47193
H         -6.03575       -5.99946        0.44438
H         -6.13021       -5.43501        2.13183
H         -8.38783       -2.09445       -0.48962
H         -8.22605        1.93780       -1.98849
H         -5.84074        2.08346       -1.40236
