56
COMP92_340003.log	Energy: -1782851.0219548
C          0.36323       -0.10140        0.02458
C         -1.07436       -0.33754        0.26765
C         -1.81051        0.05689        1.35956
C         -1.31835        0.87367        2.41609
N         -0.97315        1.53727        3.30326
C         -3.16023       -0.42298        1.33446
O         -4.07244       -0.19572        2.29428
C         -3.42960       -1.18425        0.22608
S         -2.02042       -1.29726       -0.79178
C         -4.69897       -1.78890       -0.13707
S         -4.86937       -3.49858       -0.43848
C         -6.54016       -3.35555       -0.74589
H         -7.13804       -4.21499       -1.01438
C         -6.97024       -2.06115       -0.60918
C         -8.30670       -1.60324       -0.79531
N         -9.36546       -1.14738       -0.92831
C         -5.90884       -1.15569       -0.26244
O         -6.05582        0.16821       -0.09197
C          1.20584       -1.23950        0.03720
C          2.56475       -1.12155       -0.10015
C          3.40611       -2.34714       -0.07071
O          2.95853       -3.46534        0.05961
N          4.77941       -2.13675       -0.20640
C          5.61778       -3.32517       -0.22285
O          5.92213       -3.89448       -1.22829
O          5.95550       -3.63419        1.01493
C          6.78421       -4.79667        1.14013
C          5.43832       -0.90878       -0.32765
O          6.64652       -0.86293       -0.40017
C          4.56433        0.29272       -0.35705
C          5.13357        1.53784       -0.48800
H          6.21186        1.61937       -0.57107
C          4.31717        2.68283       -0.51133
C          2.94942        2.56686       -0.41196
C          2.12619        3.80057       -0.43757
O          2.58708        4.91962       -0.48834
N          0.74812        3.59323       -0.40983
C         -0.09034        4.77477       -0.55042
O         -0.36042        5.26065       -1.60812
O         -0.46676        5.17942        0.64681
C         -1.33166        6.32147        0.65443
C          0.06920        2.37635       -0.31593
O         -1.13988        2.36332       -0.38553
C          0.92189        1.15854       -0.16165
C          2.33261        1.29675       -0.27625
C          3.16007        0.15135       -0.24503
H         -3.71831        0.42492        2.94605
H         -6.98157        0.41740       -0.22217
H          0.77644       -2.22635        0.17700
H          6.94361       -4.92357        2.20930
H          7.73233       -4.63606        0.62288
H          6.27652       -5.66581        0.71723
H          4.74986        3.67266       -0.60816
H         -1.53722        6.51823        1.70496
H         -2.25301        6.09425        0.11410
H         -0.83202        7.17352        0.18908
