34
COMP72_310001.log	Energy: -1767299.4352627
C          1.10389        1.10478        0.61823
C         -0.17770        0.40676        0.65226
C         -0.47047       -0.77168        1.29794
C          0.46283       -1.52914        2.06248
N          1.22205       -2.13244        2.69611
C         -1.83108       -1.13808        1.12134
F         -2.33402       -2.24566        1.66171
C         -2.57537       -0.27019        0.37276
S         -1.56579        1.04757       -0.15047
C         -3.97815       -0.37579        0.02617
S         -4.98571       -1.70315        0.53796
C         -6.35795       -1.06317       -0.25899
H         -7.30664       -1.57973       -0.22319
C         -6.08617        0.11679       -0.89912
C         -7.03252        0.88009       -1.64477
N         -7.80195        1.49970       -2.24992
C         -4.72206        0.49063       -0.72422
F         -4.22441        1.60402       -1.25824
C          2.33031        0.65048        0.19081
C          2.59713       -0.66367       -0.46329
O          1.72749       -1.47760       -0.71046
C          4.01885       -0.88864       -0.80918
C          4.49472       -2.03819       -1.37231
H          3.92348       -2.91838       -1.63365
S          6.18988       -1.95238       -1.63282
C          6.28043       -0.36263       -0.98847
H          7.21751        0.17393       -0.93004
C          5.05311        0.08111       -0.58711
C          4.78718        1.40832        0.00683
O          5.64686        2.25115        0.18293
C          3.36343        1.63009        0.37350
C          2.90299        2.79459        0.91601
H          3.48785        3.67609        1.14151
S          1.22335        2.72601        1.23070
