58
COMP81_100000.log	Energy: -1512769.2603227
C          0.30485        0.04266        0.06379
C          1.77137        0.10345        0.05462
C          2.66278       -0.88519       -0.20524
F          2.27308       -2.13523       -0.50684
C          4.05731       -0.52086       -0.16411
C          5.20282       -1.29755       -0.39199
C          5.19424       -2.76128       -0.74493
C          6.41493       -0.62126       -0.27753
S          7.98232       -1.37377       -0.51839
C          8.79353        0.12926       -0.19004
H          9.87109        0.20297       -0.21470
C          7.92727        1.12352        0.08085
F          8.33336        2.36836        0.36325
C          6.52991        0.75443        0.04559
C          5.38428        1.53023        0.27143
C          5.39653        2.99451        0.62139
C          4.17298        0.85521        0.15409
S          2.61057        1.60786        0.39282
C         -0.45413        1.17872       -0.23858
C         -1.84588        1.15816       -0.22398
C         -2.52113       -0.01819        0.09901
C         -3.93443       -0.43890        0.15642
C         -3.87914       -1.92040        0.50030
O         -4.78423       -2.71269        0.68486
N         -2.55117       -2.25134        0.63265
C         -2.08998       -3.57336        0.97520
C         -1.73613       -1.15641        0.37917
C         -0.35599       -1.15481        0.37911
C         -5.10254        0.24493       -0.00735
C         -5.16975        1.76407       -0.08234
O         -4.27580        2.58765       -0.01353
N         -6.49655        2.10021       -0.19776
C         -6.96898        3.45887       -0.28666
C         -7.29817        0.96567       -0.24098
C         -8.67176        0.93578       -0.40441
C         -9.28938       -0.31357       -0.46037
H        -10.36628       -0.37136       -0.58772
C         -8.53704       -1.47899       -0.36255
C         -7.15307       -1.43128       -0.19220
C         -6.50786       -0.19640       -0.11559
H          4.19166       -3.18214       -0.74577
H          5.80367       -3.32959       -0.03190
H          5.62990       -2.91638       -1.73962
H          6.40231        3.40827        0.63117
H          4.95148        3.15456        1.61104
H          4.79839        3.56483       -0.09949
H          0.04730        2.10357       -0.50669
H         -2.39919        2.05528       -0.45194
H         -2.96999       -4.20504        1.09952
H         -1.52067       -3.55276        1.91056
H         -1.45684       -3.97932        0.17902
H          0.20031       -2.05210        0.61813
H         -6.10094        4.11442       -0.21014
H         -7.66558        3.67884        0.52921
H         -7.47274        3.63075       -1.24416
H         -9.24540        1.85251       -0.49316
H         -9.02836       -2.44508       -0.41549
H         -6.58468       -2.34354       -0.10401
