39
COMP39_000030.log	Energy: -1396935.1136092
C         -2.92511        0.07328        0.03229
C         -1.47778        0.31286        0.02213
C         -0.48226       -0.61599        0.22421
C          0.79877       -0.04478        0.09735
C          0.77859        1.29509       -0.20389
S         -0.81389        1.90489       -0.31893
C          2.13960        1.78064       -0.28142
C          3.00485        0.73923       -0.04581
C          2.22880       -0.54139        0.20725
C          2.53928       -1.15093        1.57675
O          1.74410       -1.33542        2.45923
O          3.84148       -1.45313        1.65114
C          4.25574       -2.07232        2.87025
C          2.43027       -1.64213       -0.84237
O          2.19024       -2.80468       -0.62463
O          2.83259       -1.15676       -2.01433
C          2.93443       -2.11864       -3.06725
C          4.36900        1.11815       -0.11530
C          4.49942        2.44678       -0.40413
H          5.41305        3.01476       -0.51283
S          2.97005        3.24863       -0.59645
C         -3.85259        1.05622        0.39722
F         -3.43255        2.27810        0.74235
C         -5.21825        0.81140        0.41002
F         -6.04392        1.79499        0.77047
C         -5.72441       -0.42933        0.06473
H         -6.78984       -0.62157        0.07878
C         -4.82535       -1.41583       -0.30127
F         -5.26687       -2.62526       -0.65081
C         -3.45895       -1.17290       -0.32408
F         -2.65770       -2.17106       -0.70566
H         -0.66436       -1.65397        0.46263
H          5.32547       -2.24568        2.76056
H          3.72598       -3.01668        3.01343
H          4.05667       -1.41354        3.71855
H          3.25435       -1.55711       -3.94381
H          1.96585       -2.59188       -3.24367
H          3.66825       -2.88603       -2.81102
H          5.20373        0.44797        0.04487
