54
COMP91_100031.log	Energy: -1745102.0786784
C          1.62665       -0.26471        0.08599
C          0.15765       -0.20230        0.14295
C         -0.64438        0.76995       -0.34456
F         -0.15648        1.86246       -0.92291
C         -2.05530        0.49764       -0.27099
C         -3.14662        1.29074       -0.65387
C         -3.04562        2.73175       -1.03387
O         -3.72710        3.24923       -1.89034
O         -2.18593        3.38731       -0.25909
C         -2.01671        4.77385       -0.55435
C         -4.41343        0.71189       -0.61370
S         -5.89949        1.46035       -1.15483
C         -6.80641        0.05928       -0.67249
H         -7.87212        0.00280       -0.84370
C         -6.03564       -0.91218       -0.14566
F         -6.51106       -2.10163        0.21264
C         -4.63339       -0.57925       -0.06792
C         -3.55427       -1.32767        0.42243
C         -3.77215       -2.58545        1.20289
O         -4.63353       -2.73550        2.03112
O         -2.84759       -3.50994        0.90373
C         -2.91426       -4.71489        1.67085
C         -2.27256       -0.80265        0.25149
S         -0.76913       -1.58626        0.68680
C          2.18282       -1.42318       -0.51750
C          3.53245       -1.57112       -0.68586
C          4.05548       -2.80701       -1.33062
O          3.35184       -3.71941       -1.70801
N          5.43540       -2.85488       -1.47722
H          5.80576       -3.69128       -1.91407
C          6.37448       -1.90294       -1.09751
O          7.55822       -2.08349       -1.28855
C          5.81888       -0.68089       -0.45505
C          6.67586        0.31474       -0.04733
H          7.74145        0.19020       -0.20616
C          6.16089        1.46882        0.56525
C          4.80603        1.61019        0.76528
C          4.31251        2.84145        1.43004
O          5.02677        3.75515        1.78723
N          2.94506        2.87372        1.63550
H          2.59071        3.67883        2.13902
C          1.98394        1.92081        1.30933
O          0.83958        2.09342        1.66647
C          2.48305        0.73313        0.54689
C          3.89191        0.60369        0.35309
C          4.42082       -0.55299       -0.26567
H         -1.28593        5.13391        0.16800
H         -2.96545        5.30382       -0.44432
H         -1.64701        4.90326       -1.57426
H         -2.09890       -5.33747        1.30558
H         -3.87648       -5.20730        1.51542
H         -2.78860       -4.49727        2.73385
H          1.52702       -2.20925       -0.87828
H          6.81806        2.26661        0.89434
