64
COMP87_340003.log	Energy: -1786327.7906401
C          0.37175        0.47983        0.19323
C          1.82822        0.58567        0.29731
C          2.55885        1.57067        0.92224
O          2.10188        2.65265        1.57731
C          3.97065        1.35027        0.86144
C          4.89705        2.25174        1.45822
N          5.66694        2.97586        1.93670
C          4.31172        0.18774        0.18925
S          2.88857       -0.62126       -0.36109
C          5.59399       -0.42169       -0.10798
C          6.80187        0.09953        0.18542
C          8.07893       -0.52167       -0.10903
C          8.40432       -1.72188       -0.72400
C          7.49528       -2.68410       -1.24078
N          6.82216       -3.51959       -1.68659
C          9.81951       -1.94929       -0.81151
O         10.38596       -3.03994       -1.36491
C         10.54430       -0.92934       -0.26739
H         11.61957       -0.85524       -0.20456
S          9.52053        0.30614        0.35128
C         -0.27808       -0.75960        0.25963
C         -1.65958       -0.85485        0.18959
C         -2.43895        0.30232        0.08939
C         -3.87253        0.54820       -0.10515
C         -4.00804        2.04327       -0.26088
O         -5.01468        2.70137       -0.33133
N         -2.69964        2.57932       -0.18161
C         -2.35350        3.93703       -0.11367
O         -1.28289        4.32284        0.29754
O         -3.32138        4.71623       -0.56704
C         -3.05595        6.11933       -0.48154
C         -1.76973        1.53704        0.01073
C         -0.39074        1.64646        0.03511
C         -4.95240       -0.28771       -0.12429
C         -4.89689       -1.67875        0.46276
O         -3.98685       -2.19213        1.06412
N         -6.17443       -2.25038        0.27816
C         -6.58986       -3.52384        0.69372
O         -7.74259       -3.88573        0.66466
O         -5.57107       -4.26995        1.09680
C         -5.92853       -5.57638        1.55289
C         -7.02434       -1.32085       -0.37086
C         -8.33336       -1.51276       -0.78468
C         -8.95421       -0.47263       -1.47256
H         -9.98131       -0.60052       -1.80051
C         -8.27893        0.71279       -1.74741
C         -6.96873        0.89510       -1.32273
C         -6.32506       -0.12099       -0.60972
H          1.13607        2.62828        1.63631
H          5.53182       -1.38204       -0.61203
H          6.86629        1.06134        0.68491
H          9.69956       -3.64065       -1.68733
H          0.30386       -1.66677        0.39024
H         -2.12943       -1.82364        0.25104
H         -3.94947        6.59999       -0.87588
H         -2.17949        6.37903       -1.07908
H         -2.88656        6.41158        0.55688
H          0.07878        2.60886       -0.11533
H         -4.99274       -6.02912        1.87640
H         -6.37748       -6.15413        0.74184
H         -6.63408       -5.51264        2.38396
H         -8.84860       -2.43847       -0.57631
H         -8.77675        1.50903       -2.29113
H         -6.46014        1.82387       -1.52687
