34
COMP65_000011.log	Energy: -631866.2060611
C         -2.04181       -0.64173        0.00161
C         -0.58561       -0.71383        0.00030
C          0.13669        0.48408        0.00475
C          1.52231        0.40207        0.00345
N          2.45127        1.42280        0.00713
H          2.22790        2.40410        0.01232
C          3.72301        0.88581        0.00419
C          4.96049        1.53033        0.00640
C          6.09684        0.73555        0.00231
H          7.07342        1.21021        0.00401
C          6.01343       -0.66650       -0.00397
C          4.78144       -1.30079       -0.00613
C          3.62028       -0.52352       -0.00196
C          2.20842       -0.83313       -0.00241
C          1.47142       -2.01939       -0.00735
C          0.09022       -1.95517       -0.00597
C         -2.88098        0.44929       -0.00024
C         -2.90150        1.90590       -0.00447
O         -2.03091        2.76351       -0.00522
N         -4.28590        2.19692       -0.00695
H         -4.62641        3.14544       -0.00806
C         -5.06674        1.05762       -0.00341
H         -6.14605        1.12123       -0.00466
C         -4.24153       -0.01738        0.00070
C         -4.23205       -1.47990        0.00466
O         -5.10683       -2.31795        0.00809
N         -2.84529       -1.77170        0.00416
H         -2.52068       -2.72501        0.01075
H         -0.37605        1.44329        0.00827
H          5.03300        2.61362        0.01130
H          6.92534       -1.25505       -0.00712
H          4.71688       -2.38514       -0.01109
H          1.97353       -2.98196       -0.01259
H         -0.46545       -2.88718       -0.01110
