47
COMP41_200033.log	Energy: -2269023.8406025
C          2.09197       -1.37243       -0.76959
C          0.73200       -0.91436       -0.50357
C         -0.36211       -1.63367       -0.13291
Cl        -0.32294       -3.34835        0.09270
C         -1.56527       -0.84372        0.00023
C         -2.85506       -1.22130        0.39278
C         -3.17198       -2.55708        1.00517
O         -2.74140       -2.92792        2.06668
O         -4.04640       -3.23869        0.25742
C         -4.46814       -4.49213        0.80408
C         -3.86108       -0.26284        0.32101
S         -5.55105       -0.55428        0.67390
C         -5.93085        1.09980        0.33856
H         -6.95630        1.44057        0.37787
C         -4.85850        1.84028       -0.01780
Cl        -5.04331        3.47447       -0.55731
C         -3.61369        1.09549       -0.01017
C         -2.29942        1.49809       -0.28382
C         -1.89112        2.93821       -0.33960
O         -2.19944        3.76191        0.48293
O         -1.06988        3.17316       -1.37227
C         -0.51392        4.49067       -1.42312
C         -1.31404        0.51037       -0.34023
S          0.35830        0.77227       -0.76180
C          3.28048       -0.80457       -0.39526
C          3.72280        0.32273        0.46380
O          3.07246        1.08981        1.12040
N          5.15002        0.27878        0.39527
C          6.02216        1.13823        1.11176
O          7.05478        0.77490        1.60372
O          5.53348        2.37234        1.13042
C          6.29131        3.30466        1.90543
C          5.64372       -0.79685       -0.40735
O          6.79596       -1.03434       -0.64140
C          4.42078       -1.47281       -0.89438
C          4.13414       -2.55180       -1.66797
H          4.81216       -3.23887       -2.15538
S          2.42831       -2.75592       -1.78310
H         -5.18609       -4.89244        0.08992
H         -4.93448       -4.34455        1.78068
H         -3.61317       -5.16365        0.91049
H          0.15359        4.49106       -2.28342
H          0.03721        4.70514       -0.50490
H         -1.30833        5.22950       -1.54867
H          5.72593        4.23443        1.86995
H          7.28438        3.43855        1.47067
H          6.39062        2.95270        2.93453
