37
COMP47_110003.log	Energy: -1656087.6843732
C         -2.26367       -1.62548       -0.01742
C         -0.81978       -1.54705       -0.00863
C          0.06016       -2.59870        0.05146
F         -0.31122       -3.87662        0.10803
C          1.41912       -2.22433        0.04903
F          2.39055       -3.13718        0.10293
C          1.61217       -0.86958       -0.01405
S          0.07796       -0.05331       -0.07098
C          2.83407       -0.08980       -0.03829
C          4.07447       -0.61057        0.03696
C          5.29937        0.16505        0.01399
C          5.49913        1.51538       -0.09008
F          4.52526        2.42006       -0.19843
C          6.86667        1.90031       -0.07358
F          7.23165        3.17544       -0.16561
C          7.71812        0.84902        0.04309
H          8.79681        0.87564        0.07991
S          6.84356       -0.63289        0.13432
C         -3.21783       -0.63734       -0.03570
C         -3.24589        0.83725       -0.06514
O         -2.33383        1.62240       -0.13032
N         -4.63198        1.17400       -0.05332
C         -5.14769        2.49386       -0.11962
O         -6.12477        2.79375       -0.74862
O         -4.40711        3.30981        0.62059
C         -4.78519        4.68697        0.55756
C         -5.48653        0.02710       -0.04669
O         -6.68563        0.03928       -0.01278
C         -4.54904       -1.11740       -0.03585
C         -4.65259       -2.46839       -0.01577
H         -5.54115       -3.08448       -0.01148
S         -3.08049       -3.18026        0.00233
H          2.70734        0.98471       -0.12371
H          4.19852       -1.68533        0.12536
H         -4.05063        5.21431        1.16399
H         -5.79050        4.82267        0.96244
H         -4.75891        5.04270       -0.47483
