39
COMP21_400120.log	Energy: -1566289.4851527
C          2.55704        0.47486        0.11567
C          1.09938        0.31902        0.06446
C          0.33227       -0.78538        0.35613
O          0.74457       -1.99438        0.76835
C         -1.08978       -0.54973        0.21419
C         -2.16783       -1.41680        0.44660
O         -2.03323       -2.69738        0.89105
C         -1.70021       -3.63947       -0.12169
C         -3.44861       -0.91675        0.24299
S         -4.91321       -1.84042        0.47826
C         -5.87089       -0.46686       -0.01864
H         -6.94994       -0.54861       -0.04718
C         -5.13180        0.62406       -0.33292
O         -5.59386        1.83265       -0.74353
C         -3.70741        0.40532       -0.18871
C         -2.63052        1.26800       -0.42318
O         -2.77316        2.54813       -0.87165
C         -3.09788        3.49157        0.14358
C         -1.35032        0.76862       -0.21466
S          0.10236        1.69522       -0.43893
C          3.48992       -0.58896       -0.17394
N          3.16260       -1.84607       -0.46486
S          4.54737       -2.67155       -0.72228
N          5.61537       -1.47434       -0.48038
C          4.91948       -0.37943       -0.18317
C          5.47754        0.89607        0.10478
H          6.54546        1.06968        0.09421
C          4.58839        1.87618        0.39102
F          4.99460        3.10790        0.68407
C          3.16924        1.67046        0.40344
F          2.46075        2.75675        0.70481
H          1.63933       -2.16448        0.41040
H         -1.68808       -4.61522        0.36587
H         -0.71193       -3.42768       -0.54025
H         -2.45536       -3.63566       -0.91727
H         -6.55671        1.79683       -0.79217
H         -3.11214        4.46736       -0.34382
H         -2.33789        3.48728        0.93433
H         -4.08373        3.28256        0.57029
