32
COMP37_420000.log	Energy: -1806838.9450130
C          3.44630        0.31375        0.12044
C          2.04791       -0.10460       -0.05078
C          1.57616       -1.24018       -0.64600
Cl         2.56387       -2.44236       -1.41133
C          0.15603       -1.37102       -0.62366
O         -0.52260       -2.40793       -1.15775
C         -0.45975       -0.31226        0.00131
S          0.72817        0.83077        0.55771
C         -1.86925       -0.05178        0.22754
C         -2.88354       -0.88302       -0.09281
C         -4.28575       -0.54621        0.09719
C         -4.88734        0.68367       -0.03406
O         -4.29407        1.84302       -0.38861
C         -6.29497        0.63593        0.21174
Cl        -7.29688        2.04169        0.11970
C         -6.74690       -0.61128        0.50949
H         -7.76215       -0.90231        0.73681
S         -5.46977       -1.76378        0.49122
C          3.92927        1.49678       -0.44153
F          3.11614        2.27467       -1.15497
C          5.25451        1.87890       -0.27809
F          5.67513        3.01365       -0.83670
C          6.13325        1.09268        0.44818
H          7.16704        1.39063        0.57365
C          5.66489       -0.08253        1.01149
F          6.48530       -0.85713        1.72107
C          4.33931       -0.46685        0.85750
F          3.92433       -1.59389        1.43044
H          0.10592       -3.02504       -1.55954
H         -2.09541        0.88437        0.73669
H         -2.65968       -1.85368       -0.52562
H         -3.42456        1.63731       -0.76257
