37
COMP56_000410.log	Energy: -1121494.5589820
C         -0.58486        0.25706       -0.21590
C          0.85345       -0.03849       -0.21312
C          1.75046        0.87266        0.37129
C          3.10951        0.60708        0.34471
C          4.25324        1.42189        0.90418
H          4.30743        2.41780        0.44743
H          4.15302        1.57174        1.98617
C          5.45924        0.57759        0.55854
C          6.80157        0.81494        0.81329
C          7.74374       -0.12262        0.39016
H          8.79845        0.05052        0.58184
C          7.34488       -1.28123       -0.27790
C          5.99818       -1.52349       -0.53513
C          5.05890       -0.58763       -0.11368
C          3.59632       -0.56990       -0.24246
C          2.71555       -1.48725       -0.80808
C          1.35374       -1.21359       -0.79622
C         -1.19525        1.46101       -0.49085
O         -0.58553        2.61223       -0.83945
N         -2.55097        1.48734       -0.42396
C         -3.00852        0.30763       -0.10592
S         -1.81260       -0.92039        0.13446
C         -4.42463        0.01631        0.04328
S         -5.62101        1.25126       -0.17518
C         -6.83326        0.07176        0.16729
H         -7.88460        0.32172        0.16884
C         -6.24276       -1.13861        0.41423
O         -6.84536       -2.30623        0.71823
N         -4.88411       -1.16663        0.34375
H          1.36997        1.75821        0.87575
H          7.11836        1.71525        1.33295
H          8.09193       -2.00041       -0.59987
H          5.69117       -2.42675       -1.05499
H          3.08159       -2.40327       -1.26279
H          0.66106       -1.91266       -1.25615
H          0.34506        2.42130       -1.02178
H         -7.79982       -2.17102        0.73898
