66
COMP91_200033.log	Energy: -2483256.3909388
C         -1.14565       -0.18820        0.19890
C          0.31795       -0.34307        0.10268
C          1.13796        0.24288       -0.80256
Cl         0.51494        1.20133       -2.10524
C          2.52903       -0.11432       -0.64806
C          3.66852        0.37885       -1.29622
C          3.68973        1.64156       -2.09897
O          4.30547        1.78507       -3.13027
O          3.02543        2.60605       -1.46757
C          2.91738        3.85502       -2.15350
C          4.87757       -0.27468       -1.07339
S          6.38371        0.09203       -1.88201
C          7.19001       -1.14443       -0.97662
H          8.23202       -1.36265       -1.16691
C          6.38697       -1.79881       -0.10963
Cl         6.94843       -3.17459        0.78020
C          5.02503       -1.30310       -0.10477
C          3.91711       -1.66807        0.67353
C          4.04296       -2.48608        1.92258
O          4.83297       -2.26071        2.80320
O          3.11249       -3.44955        1.97107
C          3.09090       -4.21546        3.17920
C          2.67962       -1.11339        0.34568
S          1.15843       -1.46559        1.13787
C         -1.95295       -1.32865       -0.02483
C         -3.32194       -1.23626       -0.04645
C         -4.12972       -2.46147       -0.28030
O         -3.65136       -3.56325       -0.43709
N         -5.51412       -2.27311       -0.30763
C         -6.32622       -3.46880       -0.46449
O         -6.70594       -4.12324        0.46062
O         -6.55017       -3.67919       -1.74791
C         -7.35291       -4.83093       -2.03574
C         -6.20598       -1.06405       -0.18673
O         -7.41488       -1.03565       -0.26287
C         -5.36527        0.13989        0.04011
C         -5.96721        1.37053        0.16543
H         -7.04748        1.43841        0.09648
C         -5.18126        2.52006        0.36452
C         -3.81166        2.42035        0.45746
C         -3.01433        3.65987        0.63284
O         -3.49140        4.77383        0.65442
N         -1.64140        3.46480        0.77693
C         -0.82716        4.64468        1.00873
O         -0.16498        5.15580        0.15296
O         -0.94411        5.02207        2.26678
C         -0.19996        6.19519        2.61685
C         -0.96101        2.24116        0.83705
O          0.18593        2.21831        1.21949
C         -1.75256        1.03982        0.43422
C         -3.16466        1.16260        0.34785
C         -3.95703        0.01574        0.11680
H          2.26307        4.46665       -1.53416
H          2.47973        3.70440       -3.14333
H          3.90269        4.31478       -2.26020
H          2.29507       -4.94674        3.04608
H          2.88393       -3.56930        4.03540
H          4.05232       -4.71186        3.32653
H         -1.48834       -2.29413       -0.19870
H         -7.44240       -4.85742       -3.12021
H         -8.33370       -4.72715       -1.56720
H         -6.86080       -5.73192       -1.66405
H         -5.63861        3.50051        0.44151
H         -0.40028        6.35931        3.67395
H         -0.54041        7.04459        2.02104
H          0.86496        6.02634        2.44512
