60
COMP71_400033.log	Energy: -2241061.8537669
C          0.40462       -1.86244       -0.48914
C         -0.89706       -1.26013       -0.30270
C         -1.31466       -0.01409       -0.69187
O         -0.57363        0.88446       -1.35137
C         -2.72021        0.21710       -0.43624
C         -3.44158        1.40257       -0.61707
C         -2.79445        2.71599       -0.93043
O         -3.19673        3.48233       -1.77470
O         -1.77530        2.96389       -0.10796
C         -0.99602        4.11987       -0.42049
C         -4.82087        1.35147       -0.43590
S         -5.93977        2.66420       -0.71365
C         -7.26845        1.66015       -0.20182
H         -8.27694        2.05164       -0.24211
C         -6.90136        0.40519        0.15107
O         -7.71511       -0.61769        0.49910
C         -5.47183        0.19235        0.05850
C         -4.72401       -0.95247        0.37067
C         -5.29995       -2.09667        1.14583
O         -5.92998       -1.98625        2.16603
O         -4.95057       -3.27338        0.60175
C         -5.34802       -4.42776        1.34330
C         -3.36557       -0.93966        0.05497
S         -2.22748       -2.24680        0.30435
C          1.69066       -1.34524       -0.37705
C          2.06468       -0.01244        0.09577
O          1.26158        0.83118        0.48788
C          3.52240        0.27521        0.13751
C          4.06017        1.50072        0.45448
C          3.38236        2.82486        0.59765
O          2.54064        3.25289       -0.14990
O          3.89666        3.49976        1.63170
C          3.36283        4.81247        1.82866
S          5.77427        1.41992        0.56509
C          5.79204       -0.25414        0.16378
C          7.08577       -0.99788        0.20278
O          7.23726       -2.08710        0.68795
O          8.06767       -0.24554       -0.31377
C          9.37145       -0.83181       -0.25748
C          4.52273       -0.72946       -0.05888
C          4.16233       -2.07639       -0.58416
O          4.98294       -2.88794       -0.96088
C          2.70423       -2.32850       -0.66247
C          2.19279       -3.54892       -0.97608
H          2.75537       -4.44197       -1.21186
S          0.47975       -3.54455       -0.94397
H          0.17003        1.13722       -0.75842
H         -0.10184        4.04683        0.19704
H         -1.55766        5.03003       -0.19516
H         -0.72285        4.11427       -1.47776
H         -8.62639       -0.30328        0.52764
H         -4.97825       -5.28059        0.77566
H         -6.43600       -4.46525        1.43264
H         -4.90652       -4.40926        2.34254
H          3.89486        5.21755        2.68784
H          2.29124        4.75468        2.03227
H          3.53030        5.42855        0.94229
H         10.04064       -0.09863       -0.70513
H          9.38846       -1.76698       -0.82120
H          9.65345       -1.03164        0.77893
