29
COMP42_230001.log	Energy: -1908083.2201669
C         -2.50952        0.35915        0.32129
C         -1.10343        0.69015        0.12317
C         -0.50110        1.91841        0.00642
Cl        -1.33002        3.42968        0.01934
C          0.91556        1.84559       -0.14702
C          1.75368        2.99430       -0.26570
N          2.43595        3.92584       -0.36539
C          1.37732        0.54338       -0.13862
S          0.08013       -0.57167        0.03390
C          2.75185        0.07851       -0.28786
S          3.77877        0.69550       -1.53124
C          5.08451       -0.30805       -1.05040
H          6.03399       -0.27121       -1.56501
C          4.75058       -1.08936        0.01221
Cl         5.82394       -2.21298        0.75876
C          3.40851       -0.87826        0.46195
C          2.83289       -1.55186        1.58062
N          2.36266       -2.09829        2.48807
C         -3.23485       -0.67392       -0.20612
C         -3.02806       -1.77928       -1.18500
O         -2.04032       -2.10580       -1.79761
N         -4.27585       -2.40605       -1.25793
H         -4.44274       -3.21049       -1.84605
C         -5.26968       -1.85267       -0.43554
O         -6.40539       -2.24305       -0.34253
C         -4.57785       -0.72326        0.24214
C         -4.89857        0.25701        1.12444
H         -5.84596        0.45671        1.60615
S         -3.53057        1.26381        1.41666
