24
COMP64_000001.log	Energy: -951889.3811407
C         -1.10861       -0.53344       -0.00019
C          0.32591       -0.43882       -0.00053
C          1.03981        0.73679       -0.00084
H          0.55809        1.71089       -0.00113
C          2.43191        0.48233       -0.00021
S          3.85395        1.47320        0.00004
C          4.86456        0.06184        0.00132
H          5.93974        0.18105        0.00203
C          4.17104       -1.11110        0.00066
H          4.63556       -2.08864        0.00088
C          2.76913       -0.86406        0.00004
S          1.35673       -1.86130       -0.00088
C         -2.03966        0.47570        0.00014
C         -2.17005        1.92134       -0.00003
O         -1.35966        2.83490       -0.00038
N         -3.57586        2.09993        0.00009
H         -3.99537        3.01646        0.00001
C         -4.26026        0.90003        0.00054
H         -5.34123        0.87552        0.00073
C         -3.35065       -0.10711        0.00040
C         -3.21085       -1.56483        0.00007
O         -4.00677       -2.47657        0.00058
N         -1.79900       -1.73541        0.00006
H         -1.38587       -2.65591        0.00019
