23
COMP24_200000.log	Energy: -1684128.5164872
C          1.47667       -0.80421       -0.49161
C          0.07181       -0.39791       -0.33946
C         -0.50114        0.81812       -0.58533
Cl         0.33081        2.19601       -1.21043
C         -1.90081        0.82407       -0.32542
S         -3.16422        1.99997       -0.44333
C         -4.32884        0.83415        0.10711
H         -5.36829        1.10955        0.21584
C         -3.77494       -0.38149        0.36240
Cl        -4.65556       -1.76217        0.92079
C         -2.37184       -0.39517        0.11420
S         -1.10718       -1.56654        0.22452
C          2.51870       -0.13401        0.23220
N          2.35808        0.86869        1.09515
S          3.84367        1.25317        1.62984
N          4.74322        0.17420        0.81066
C          3.89080       -0.53997        0.07215
C          4.22856       -1.62153       -0.79132
H          5.26587       -1.91574       -0.90306
C          3.21361       -2.25346       -1.44655
H          3.43289       -3.08299       -2.11113
C          1.85040       -1.84771       -1.29755
H          1.08712       -2.37741       -1.86007
