42
COMP62_420003.log	Energy: -1957489.2460998
C          1.53723        0.92382        0.12378
C          0.10723        0.81031        0.35655
C         -0.67408        1.31367        1.38142
O         -0.31137        2.17198        2.33608
C         -1.98790        0.75306        1.36808
Cl        -3.18231        1.22266        2.51779
C         -2.20031       -0.14433        0.35784
S         -0.78035       -0.34058       -0.60142
C         -3.43174       -0.86426        0.03688
S         -3.93470       -2.23768        0.96546
C         -5.34623       -2.45035       -0.00410
H         -6.04465       -3.24759        0.21115
C         -5.42763       -1.51703       -0.99574
O         -6.38774       -1.37571       -1.93566
C         -4.32229       -0.60847       -0.96804
Cl        -4.17477        0.68733       -2.09723
C          2.42440       -0.09632       -0.02818
C          2.51196       -1.55247        0.11697
O          1.69217       -2.39286        0.37349
N          3.93401       -1.79536       -0.12156
C          4.63363       -3.01300       -0.14111
O          5.82130       -3.06463       -0.35699
O          3.83774       -4.04079        0.09756
C          4.48482       -5.31616        0.09318
C          4.61303       -0.60140       -0.36058
H          5.67921       -0.62526       -0.53299
C          3.73075        0.41680       -0.31713
C          3.66976        1.86843       -0.37139
O          4.51016        2.71267       -0.53096
N          2.25574        2.13238       -0.10433
C          1.69784        3.41225       -0.15758
O          0.78646        3.78876        0.55366
O          2.27660        4.15543       -1.07572
C          1.86730        5.52781       -1.11556
H          0.25197        2.85402        1.91467
H         -7.05938       -2.05589       -1.80838
H          3.69478       -6.03639        0.29822
H          5.25368       -5.35504        0.86765
H          4.94075       -5.50777       -0.88051
H          2.48621        5.98407       -1.88556
H          2.04231        6.00180       -0.14777
H          0.80882        5.59829       -1.37265
