48
COMP72_440003.log	Energy: -2001714.3413756
C          0.50150       -1.31449        0.26077
C          1.70742       -0.52523        0.26055
C          1.95876        0.72359        0.79337
O          1.12009        1.58996        1.38402
C          3.33444        1.08402        0.75035
O          3.75953        2.27427        1.22597
C          4.14885        0.13428        0.19406
S          3.20324       -1.24446       -0.31190
C          5.57472        0.21351       -0.02145
S          6.51481        1.61694        0.43645
C          7.98024        0.89563       -0.13412
H          8.91897        1.42660       -0.05603
C          7.75818       -0.34438       -0.64414
O          8.63018       -1.24033       -1.18862
C          6.38851       -0.73683       -0.58136
O          5.95048       -1.93445       -1.03513
C         -0.84929       -0.98420        0.16458
C         -1.41220        0.32968       -0.12054
O         -0.74361        1.32639       -0.39625
C         -2.89678        0.41598       -0.09322
C         -3.60782        1.59054       -0.16683
C         -3.12493        3.00259       -0.09484
O         -2.30537        3.41187        0.68534
O         -3.79432        3.76528       -0.96845
C         -3.46470        5.15688       -0.93780
S         -5.30186        1.29492       -0.20076
C         -5.07897       -0.40416       -0.03138
C         -6.27522       -1.27436        0.16588
O         -6.36333       -2.15122        0.98322
O         -7.26575       -0.88765       -0.65179
C         -8.49168       -1.60790       -0.49903
C         -3.74615       -0.73324       -0.00916
C         -3.17507       -2.10734        0.03433
O         -3.84246       -3.11328       -0.09985
C         -1.70469       -2.14568        0.20754
C         -1.02049       -3.31311        0.32746
H         -1.44495       -4.30742        0.35125
S          0.66978       -3.04658        0.43191
H          0.32018        1.67714        0.81199
H          2.96707        2.74407        1.53327
H          9.52297       -0.87764       -1.18015
H          6.71380       -2.42071       -1.37791
H         -4.08883        5.62018       -1.70037
H         -2.40617        5.29873       -1.16576
H         -3.67950        5.57859        0.04689
H         -9.17145       -1.18744       -1.23873
H         -8.88932       -1.47466        0.51001
H         -8.32953       -2.67189       -0.68355
