30
COMP37_210000.log	Energy: -1836968.2648156
C         -3.47836       -0.21502        0.01745
C         -2.06874        0.16580       -0.10936
C         -1.57641        1.40024       -0.41770
F         -2.33917        2.44498       -0.70737
C         -0.15889        1.48854       -0.42908
Cl         0.61296        2.98009       -0.82898
C          0.45410        0.29579       -0.12319
S         -0.75127       -0.92389        0.16939
C          1.84333       -0.11899       -0.01846
C          2.92111        0.68661       -0.06439
C          4.31245        0.27991        0.04158
C          4.93632       -0.93073        0.23548
Cl         4.17751       -2.46912        0.43427
C          6.35650       -0.82466        0.26899
F          7.12876       -1.89013        0.44767
C          6.82255        0.43930        0.10504
H          7.85155        0.76582        0.09358
S          5.51390        1.53549       -0.09560
C         -3.99385       -1.36365       -0.58817
F         -3.19265       -2.15542       -1.30322
C         -5.33380       -1.70431       -0.46463
F         -5.77800       -2.80897       -1.06428
C         -6.20359       -0.90848        0.26209
H         -7.24973       -1.17264        0.35578
C         -5.70564        0.23160        0.86968
F         -6.51322        1.01450        1.58485
C         -4.36377        0.57212        0.75924
F         -3.92596        1.66190        1.38521
H          1.98500       -1.18528        0.11887
H          2.77554        1.75381       -0.19209
