32
COMP57_210200.log	Energy: -2732384.0792675
C         -1.78994       -0.30983       -0.00322
C         -0.44412        0.22501       -0.01847
C         -0.09471        1.54962       -0.05332
F         -0.98430        2.53855       -0.08096
C          1.29764        1.80176       -0.05715
Cl         1.93205        3.40351       -0.10184
C          2.04554        0.65059       -0.02526
S          1.00704       -0.74331        0.01193
C          3.49059        0.55909       -0.02218
C          4.18421       -0.59417       -0.03323
C          5.62719       -0.75040       -0.02760
C          6.67005        0.14284        0.05785
Cl         6.55165        1.85753        0.20314
C          7.94587       -0.49071        0.02475
F          9.07141        0.20929        0.09723
C          7.89141       -1.84266       -0.08323
H          8.71829       -2.53542       -0.12631
S          6.25699       -2.37120       -0.14619
C         -2.24900       -1.60981        0.02116
Cl        -1.24569       -3.01712        0.03840
N         -3.58934       -1.79888        0.03095
C         -4.20219       -0.64839        0.01438
S         -3.17961        0.74505       -0.01463
C         -5.64908       -0.51701        0.01835
S         -6.68568       -1.90879        0.04336
C         -8.03956       -0.84802        0.03307
H         -9.05714       -1.20940        0.04328
C         -7.60381        0.44385        0.01191
Cl        -8.65047        1.81820       -0.00419
N         -6.25832        0.63626        0.00359
H          4.00426        1.51332       -0.01298
H          3.63556       -1.53537       -0.05403
