43
COMP69_000020.log	Energy: -1217355.7368205
C         -2.11632       -0.87418        0.11843
C         -0.68232       -0.75190        0.11355
C         -0.02042        0.46268        0.20559
C          1.36829        0.31807        0.08137
C          1.76507       -0.98823       -0.08345
S          0.45193       -2.07885       -0.10599
C          3.21161       -1.04675       -0.16472
C          3.72176        0.22255       -0.06281
C          2.59078        1.23913        0.12659
O          2.68762        2.15707       -0.92164
C          1.60648        3.07220       -1.02123
O          2.56345        1.86574        1.37921
C          3.71883        2.61511        1.70373
C          5.13024        0.26335       -0.21125
C          5.65071       -0.98821       -0.39873
H          6.68849       -1.26217       -0.53001
S          4.43319       -2.22338       -0.41981
C         -3.02557        0.16234        0.03943
C         -3.13059        1.59833       -0.11923
O         -2.30733        2.50486       -0.17080
N         -4.53322        1.81467       -0.20376
C         -5.10818        3.13028       -0.36613
C         -5.23223        0.63022       -0.10773
H         -6.31253        0.62250       -0.16727
C         -4.34595       -0.38690        0.04668
C         -4.24292       -1.83236        0.16053
O         -5.06835       -2.71884        0.22801
N         -2.83188       -2.06366        0.19286
C         -2.32805       -3.40662        0.37795
H         -0.55314        1.39932        0.33389
H          1.91988        3.83284       -1.73789
H          1.39228        3.54280       -0.05591
H          0.69886        2.58136       -1.39091
H          4.00929        3.28045        0.88284
H          4.55961        1.95617        1.95579
H          3.45986        3.21184        2.58005
H          5.73204        1.16335       -0.19233
H         -4.28199        3.84313       -0.36728
H         -5.78611        3.36649        0.45986
H         -5.64978        3.20832       -1.31421
H         -3.20230       -4.03819        0.54762
H         -1.66657       -3.46530        1.24710
H         -1.80443       -3.76969       -0.51189
