39
COMP21_000420.log	Energy: -1441792.1005099
C          2.36002        0.46312       -0.02904
C          0.91307        0.22321       -0.04245
C         -0.06814        1.14001       -0.28446
H          0.12726        2.16669       -0.55339
C         -1.39311        0.60970       -0.15720
C         -2.61414        1.27296       -0.32633
O         -2.66769        2.59763       -0.66766
C         -2.50615        3.47760        0.43767
C         -3.78077        0.54188       -0.15412
S         -5.41443        1.14591       -0.31021
C         -6.05383       -0.42796        0.09320
H         -7.12635       -0.56510        0.13597
C         -5.10359       -1.36039        0.32421
H         -5.31165       -2.38763        0.59715
C         -3.76846       -0.83392        0.18516
C         -2.54797       -1.49380        0.35253
O         -2.50141       -2.81975        0.69356
C         -2.55959       -3.69438       -0.42618
C         -1.37886       -0.76159        0.18610
S          0.24530       -1.37325        0.33471
C          3.32136       -0.61170       -0.09004
N          3.02758       -1.90387       -0.17567
S          4.43819       -2.71960       -0.20927
N          5.48205       -1.46854       -0.11886
C          4.74408       -0.36606       -0.05657
C          5.24853        0.96098        0.03888
H          6.31776        1.14210        0.06414
C          4.33087        1.95831        0.09821
O          4.63298        3.28327        0.20044
C          2.90127        1.72734        0.06721
O          2.12188        2.82549        0.14347
H         -2.58797        4.48978        0.03814
H         -1.52455        3.34570        0.90927
H         -3.29040        3.31446        1.18707
H         -2.47739       -4.70768       -0.02967
H         -1.73159       -3.50368       -1.11957
H         -3.51079       -3.58403       -0.96209
H          5.58830        3.40598        0.25046
H          2.70130        3.59653        0.24128
