30
COMP64_100000.log	Energy: -1125707.8996877
C         -1.05051        0.63148       -0.15226
C          0.37578        0.36713       -0.11274
C          1.37524        1.10222        0.47054
F          1.18236        2.24336        1.12847
C          2.65562        0.51325        0.35157
S          4.26090        0.92143        0.85651
C          4.87167       -0.54497        0.14465
H          5.92435       -0.78293        0.19146
C          3.89301       -1.28597       -0.43463
F          4.09014       -2.44970       -1.04837
C          2.60453       -0.69049       -0.32335
S          1.00596       -1.11726       -0.80482
C         -2.08097       -0.25983       -0.01683
C         -2.38067       -1.65021        0.30312
O         -1.68938       -2.63707        0.46667
N         -3.80538       -1.65900        0.38413
C         -4.55673       -2.85838        0.67757
C         -4.32881       -0.40793        0.14496
H         -5.39789       -0.24422        0.18937
C         -3.31611        0.45955       -0.11295
C         -3.01392        1.86238       -0.36089
O         -3.70763        2.83860       -0.55466
N         -1.58573        1.89594       -0.36647
C         -0.88038        3.10114       -0.75103
H         -3.83361       -3.67048        0.77079
H         -5.25770       -3.09062       -0.12994
H         -5.10559       -2.75733        1.61910
H         -1.59256        3.73170       -1.28572
H         -0.04337        2.85213       -1.40836
H         -0.50854        3.64494        0.11932
