54
COMP71_100032.log	Energy: -2128974.2715147
C         -1.10416       -1.50318       -1.15694
C          0.25497       -1.07444       -0.84927
C          0.77081        0.16481       -1.01567
F          0.04108        1.18492       -1.44707
C          2.15482        0.29939       -0.64008
C          2.99818        1.41973       -0.66869
C          2.65236        2.71856       -1.32064
O          2.98237        3.79745       -0.88149
O          2.02517        2.54358       -2.48184
C          1.63364        3.73935       -3.15683
C          4.27221        1.29254       -0.11597
S          5.47745        2.56122       -0.03174
C          6.64273        1.44217        0.60501
H          7.65590        1.75372        0.81595
C          6.14030        0.20477        0.78074
F          6.88345       -0.82058        1.19899
C          4.75145        0.06562        0.41006
C          3.90792       -1.05536        0.43652
C          4.24701       -2.35256        1.09251
O          3.89035       -3.42942        0.66832
O          4.90105       -2.18113        2.23943
C          5.26836       -3.37976        2.92310
C          2.63609       -0.92965       -0.12060
S          1.43839       -2.19969       -0.21200
C         -2.30640       -1.01432       -0.69984
C         -2.47765        0.06011        0.32001
O         -1.53679        0.62767        0.84605
C         -3.88522        0.35814        0.64852
C         -4.27368        1.30855        1.55178
O         -3.46642        2.09128        2.25943
C         -4.03658        3.03570        3.14767
S         -6.02735        1.40290        1.69858
C         -6.21669        0.12113        0.50613
O         -7.41105       -0.32272        0.12861
C         -8.56528        0.22815        0.73722
C         -5.01158       -0.32814        0.04399
C         -4.84518       -1.39932       -0.94976
O         -5.76714       -2.00061       -1.47473
C         -3.42658       -1.70669       -1.26932
C         -3.05972       -2.70052       -2.12821
H         -3.72368       -3.36048       -2.66941
S         -1.35805       -2.81203       -2.27341
H          1.11074        3.40798       -4.05269
H          2.51245        4.33323       -3.41906
H          0.97224        4.33439       -2.52310
H          5.80206       -3.05280        3.81421
H          5.91361       -3.99541        2.29218
H          4.37741       -3.95130        3.19330
H         -3.19548        3.55074        3.60993
H         -4.63176        2.53756        3.92287
H         -4.65769        3.75960        2.60613
H         -9.41285       -0.27915        0.27819
H         -8.63654        1.30575        0.54449
H         -8.56718        0.04119        1.81798
