48
COMP26_000430.log	Energy: -1157531.1665240
C         -2.63852       -0.81589       -0.00744
C         -1.20772       -1.14574       -0.20403
C         -0.22723       -0.20861        0.14498
C          1.10146       -0.51677       -0.06983
C          2.32438        0.35188        0.18776
C          2.21850        1.62545       -0.65954
O          2.81162        1.84618       -1.68212
O          1.31147        2.45165       -0.11767
C          0.99559        3.61060       -0.88793
C          2.47972        0.72362        1.66464
O          1.83424        0.28155        2.57820
O          3.47718        1.61095        1.81038
C          3.74077        2.01688        3.15301
C          3.46190       -0.55361       -0.26552
C          4.82343       -0.30138       -0.27166
C          5.68214       -1.29597       -0.73959
H          6.75307       -1.11753       -0.75407
C          5.17866       -2.51491       -1.19371
C          3.80809       -2.76350       -1.19268
C          2.95086       -1.77402       -0.72579
C          1.48734       -1.74470       -0.61630
C          0.52185       -2.68349       -0.95798
C         -0.81858       -2.37568       -0.75208
C         -3.16655        0.46772       -0.39165
N         -2.47880        1.45434       -0.96147
S         -3.52492        2.68163       -1.20712
N         -4.88959        2.01612       -0.60546
C         -4.55875        0.79816       -0.19029
C         -5.44792       -0.14583        0.39878
H         -6.49260        0.10540        0.54957
C         -4.92630       -1.34945        0.74864
O         -5.63093       -2.36174        1.32673
C         -3.53264       -1.69350        0.55018
O         -3.14277       -2.92166        0.95273
H         -0.50638        0.74719        0.57033
H          0.30451        4.18925       -0.27621
H          0.51977        3.31699       -1.82656
H          1.89885        4.18612       -1.10210
H          4.54384        2.74995        3.08575
H          4.05143        1.16047        3.75631
H          2.84845        2.46348        3.59755
H          5.21008        0.65011        0.07704
H          5.86300       -3.27709       -1.55451
H          3.41860       -3.71160       -1.55239
H          0.80074       -3.64087       -1.38836
H         -1.57941       -3.09863       -1.02402
H         -6.54201       -2.08666        1.48388
H         -3.90381       -3.35893        1.36227
