38
COMP46_000012.log	Energy: -908744.4721620
C         -1.25187        1.25507       -0.10160
C          0.19554        1.03443       -0.00030
C          0.75251       -0.17725       -0.43859
C          2.11790       -0.36689       -0.33510
C          2.94013       -1.57137       -0.73092
H          2.62684       -2.47138       -0.18795
H          2.84392       -1.79496       -1.80043
C          4.34378       -1.14672       -0.36463
C          5.53770       -1.84047       -0.49685
C          6.72140       -1.23178       -0.08024
H          7.66339       -1.76292       -0.17922
C          6.70912        0.05436        0.46226
C          5.51380        0.75487        0.59597
C          4.33328        0.14758        0.17892
C          2.94841        0.63254        0.19467
C          2.40488        1.83667        0.63090
C          1.03338        2.02830        0.53220
C         -2.30077        0.37263       -0.13170
C         -2.50914       -1.09610       -0.04284
O         -1.73907       -2.02437        0.01506
N         -3.91101       -1.22749       -0.02761
O         -4.50661       -2.44559       -0.12551
C         -4.77736       -2.97626        1.17352
C         -4.64355       -0.03551       -0.16859
O         -5.84356        0.05419       -0.21250
C         -3.57948        0.99674       -0.21447
C         -3.53648        2.34916       -0.26490
H         -4.35245        3.05573       -0.32525
S         -1.89393        2.88192       -0.22205
H          0.11299       -0.95824       -0.83403
H          5.55474       -2.84170       -0.91887
H          7.64027        0.51198        0.78258
H          5.50670        1.75537        1.01959
H          3.03421        2.61581        1.05079
H          0.60392        2.95720        0.89714
H         -5.26179       -3.93558        0.98849
H         -5.45305       -2.31561        1.72526
H         -3.84489       -3.12800        1.72548
