58
COMP97_320003.log	Energy: -2313814.7692488
C          1.23681       -0.07937        0.16456
C         -0.19958       -0.17226        0.51010
C         -0.75492       -0.09619        1.75084
Cl         0.15790        0.19600        3.18546
C         -2.17676       -0.24859        1.75480
C         -2.95314       -0.19850        2.94746
N         -3.59852       -0.15931        3.91056
C         -2.69135       -0.45177        0.48562
S         -1.41396       -0.45484       -0.68164
C         -4.04647       -0.65607        0.00378
C         -5.16030       -0.62975        0.76071
C         -6.51643       -0.83018        0.27932
C         -7.01911       -1.17833       -0.96415
C         -6.22278       -1.44393       -2.11469
N         -5.56023       -1.65620       -3.04285
C         -8.44908       -1.25850       -0.97269
Cl        -9.35300       -1.67263       -2.38371
C         -9.01213       -0.98087        0.23319
H        -10.06355       -0.97486        0.48132
S         -7.81283       -0.61601        1.40681
C          1.98004       -1.28230        0.17726
C          3.32292       -1.28989       -0.10402
C          4.06529       -2.57798       -0.07568
O          3.55127       -3.64271        0.18708
N          5.42620       -2.49519       -0.37764
C          6.15837       -3.75178       -0.40802
O          6.28511       -4.40691       -1.39914
O          6.62475       -4.01224        0.79860
C          7.35864       -5.23880        0.90682
C          6.15875       -1.34061       -0.66942
O          7.34935       -1.40297       -0.88326
C          5.38221       -0.07345       -0.69401
C          6.02656        1.10578       -0.98632
H          7.09057        1.08644       -1.19587
C          5.30546        2.31320       -1.00819
C          3.95591        2.32405       -0.73902
C          3.23214        3.61811       -0.76828
O          3.75828        4.68284       -1.00801
N          1.86640        3.54140       -0.49825
C          1.12068        4.78916       -0.57669
O          0.60445        5.17563       -1.58245
O          1.12910        5.37434        0.60554
C          0.41784        6.61725        0.66599
C          1.12109        2.40659       -0.16944
O         -0.06180        2.51862        0.06683
C          1.87200        1.11585       -0.14458
C          3.26385        1.12432       -0.43307
C          3.99421       -0.08548       -0.41239
H         -4.12746       -0.83373       -1.06420
H         -5.08087       -0.43817        1.82634
H          1.48492       -2.21737        0.41777
H          7.65102       -5.30890        1.95290
H          8.23659       -5.20695        0.25832
H          6.72227       -6.07983        0.62401
H          5.79829        3.25238       -1.23496
H          0.55532        6.97922        1.68323
H         -0.64003        6.45010        0.45322
H          0.83261        7.32209       -0.05738
