43
COMP56_000300.log	Energy: -1192170.4048999
C         -0.74259        0.20067       -0.25705
C          0.66357       -0.21663       -0.27612
C          1.65567        0.63270        0.23778
C          2.97713        0.23270        0.19200
C          4.20387        0.99058        0.67331
C          4.37339        2.31246       -0.09500
C          4.13663        1.25431        2.18694
C          5.30894        0.00123        0.33337
C          6.67498        0.12825        0.53504
C          7.51541       -0.91383        0.14326
H          8.58696       -0.82582        0.29542
C          6.99371       -2.06825       -0.44241
C          5.62304       -2.20012       -0.64758
C          4.78750       -1.15868       -0.25642
C          3.33015       -1.01289       -0.34612
C          2.35305       -1.86756       -0.84615
C          1.02450       -1.46322       -0.81036
C         -1.29059        1.45429       -0.45031
C         -0.53003        2.63230       -0.74314
N          0.10377        3.57607       -0.96827
N         -2.65579        1.54544       -0.37873
C         -3.17002        0.37791       -0.13506
S         -2.02757       -0.91941        0.03821
C         -4.60062        0.14596       -0.00711
S         -5.74526        1.44650       -0.18365
C         -7.00467        0.32124        0.10474
H         -8.04595        0.61034        0.11332
C         -6.48112       -0.92712        0.30890
C         -7.27188       -2.09158        0.57956
N         -7.93406       -3.01652        0.79685
N         -5.11431       -1.02181        0.24397
H          1.38549        1.58906        0.67459
H          3.52659        2.98152        0.09206
H          4.43660        2.13313       -1.17226
H          5.28848        2.82341        0.22350
H          3.30070        1.92082        2.42587
H          5.05868        1.73355        2.53304
H          4.00518        0.32002        2.74108
H          7.08979        1.02403        0.99000
H          7.66343       -2.86886       -0.74145
H          5.21853       -3.09910       -1.10438
H          2.61505       -2.83252       -1.26957
H          0.25848       -2.11360       -1.22354
