33
COMP27_230100.log	Energy: -2021464.9213529
C         -3.14842       -0.53675       -0.26843
C         -1.80786        0.05828       -0.26518
C         -1.48981        1.38521       -0.44385
C         -2.45322        2.39609       -0.73881
N         -3.24025        3.20565       -0.99850
C         -0.08357        1.62300       -0.35276
Cl         0.59343        3.19740       -0.54833
C          0.65722        0.49549       -0.10198
S         -0.39132       -0.88517        0.01186
C          2.09779        0.41026        0.03970
C          2.76725       -0.69437        0.41044
C          4.21184       -0.82009        0.53407
C          5.25344       -0.12523       -0.03048
Cl         5.09355        1.18067       -1.14692
C          6.54503       -0.61265        0.35722
C          7.78352       -0.06493       -0.09646
N          8.79576        0.36894       -0.45641
C          6.46247       -1.67808        1.21216
H          7.28500       -2.22391        1.65207
S          4.83972       -2.08972        1.55053
C         -4.19481       -0.02186        0.57146
N         -4.06759        0.96818        1.44942
S         -5.53090        1.17210        2.12662
N         -6.37228        0.01252        1.35743
C         -5.52074       -0.57964        0.52185
C         -5.82252       -1.67070       -0.34341
H         -6.81491       -2.10116       -0.38865
C         -4.80801       -2.14914       -1.10428
F         -4.98794       -3.16758       -1.94088
C         -3.48755       -1.59010       -1.06896
F         -2.59539       -2.14682       -1.88346
H          2.63035        1.33144       -0.16966
H          2.20900       -1.59519        0.66333
