39
COMP21_000320.log	Energy: -1463133.4994082
C          2.25535        0.11291        0.00372
C          0.80144       -0.04936       -0.01194
C         -0.09449        0.86334       -0.47808
H          0.18271        1.78812       -0.96735
C         -1.45578        0.47206       -0.27894
C         -2.61572        1.18333       -0.60958
O         -2.55401        2.40651       -1.20901
C         -2.31561        3.48450       -0.30292
C         -3.83673        0.59140       -0.31901
S         -5.41415        1.27460       -0.63050
C         -6.17802       -0.12706        0.07138
H         -7.25833       -0.16918        0.11891
C         -5.30822       -1.06372        0.51072
H         -5.60181       -1.99008        0.98865
C         -3.93521       -0.68326        0.29511
C         -2.77428       -1.38958        0.62473
O         -2.83004       -2.61577        1.22898
C         -2.99426       -3.69182        0.31234
C         -1.55087       -0.79670        0.34066
S          0.02059       -1.47783        0.66501
C          3.13773       -0.99195       -0.26002
N          2.75438       -2.24073       -0.52538
S          4.10848       -3.10393       -0.75330
N          5.23131       -1.95210       -0.53690
C          4.56545       -0.82740       -0.26960
C          5.15147        0.44116       -0.02097
H          6.22732        0.56493       -0.03763
C          4.30978        1.48558        0.23925
C          4.87687        2.78005        0.49885
N          5.36083        3.81267        0.70136
C          2.86930        1.32624        0.26914
C          2.09679        2.48434        0.61949
N          1.50143        3.43629        0.90700
H         -2.32733        4.39471       -0.90340
H         -1.34185        3.38442        0.19059
H         -3.10522        3.53305        0.45591
H         -2.99405       -4.60688        0.90648
H         -2.16955       -3.72213       -0.40990
H         -3.94390       -3.60562       -0.22993
