54
COMP81_000012.log	Energy: -1433218.3332385
C          1.21762       -0.16765        0.10716
C          2.68189       -0.28379        0.09162
C          3.57138        0.61399       -0.40485
H          3.27280        1.53872       -0.88618
C          4.94299        0.20181       -0.27570
C          6.09509        0.87617       -0.68494
H          6.02337        1.84524       -1.16914
C          7.32092        0.27002       -0.45349
S          8.89987        0.90483       -0.86772
C          9.67522       -0.50841       -0.20237
H         10.75428       -0.58206       -0.23169
C          8.80757       -1.41110        0.30389
H          9.11049       -2.34762        0.75760
C          7.43130       -0.99719        0.17720
C          6.27831       -1.67285        0.58283
H          6.34916       -2.64342        1.06415
C          5.05299       -1.06751        0.35001
S          3.47592       -1.70253        0.76281
C          0.39432       -1.29570        0.01393
C         -0.99436       -1.19492        0.00503
C         -1.60252        0.05840        0.09029
C         -2.99205        0.56675        0.03144
C         -2.85526        2.08457        0.03866
O         -3.68143        2.96768       -0.05738
N         -1.51618        2.32522        0.25150
O         -0.96835        3.56567        0.08426
C         -1.07076        4.31746        1.29596
C         -0.74566        1.17338        0.18166
C          0.62896        1.10154        0.20047
C         -4.19525       -0.07305        0.00191
C         -4.32598       -1.57849        0.20258
O         -3.49854       -2.41999        0.48642
N         -5.65757       -1.85583        0.01061
O         -6.20749       -3.05826        0.35359
C         -6.06408       -3.99218       -0.71863
C         -6.43155       -0.71356       -0.15082
C         -7.80343       -0.65660       -0.28767
C         -8.37008        0.60267       -0.48242
H         -9.44656        0.69299       -0.59185
C         -7.56755        1.73786       -0.54292
C         -6.18215        1.65502       -0.39769
C         -5.58353        0.41214       -0.18091
H          0.84460       -2.27922       -0.07820
H         -1.59586       -2.08741       -0.06338
H         -0.56849        5.26212        1.08308
H         -0.56591        3.79790        2.11732
H         -2.12024        4.49762        1.54252
H          1.22392        2.00285        0.29098
H         -6.56308       -4.89729       -0.36982
H         -5.00658       -4.19566       -0.90626
H         -6.55040       -3.61712       -1.62545
H         -8.40001       -1.56012       -0.23587
H         -8.02147        2.71050       -0.70226
H         -5.57591        2.54591       -0.44007
