68
COMP81_300023.log	Energy: -1834908.2495282
C          0.50210       -0.05137        0.03834
C          1.96912       -0.15457        0.00059
C          2.86487        0.75109       -0.50696
C          2.46120        1.96629       -1.13940
N          2.12029        2.95829       -1.63431
C          4.24352        0.32252       -0.38145
C          5.41670        0.97339       -0.77752
O          5.39866        2.18156       -1.40280
C          5.39485        3.30769       -0.52549
C          6.62127        0.31734       -0.55072
S          8.19807        0.93814       -0.98028
C          8.95715       -0.47117       -0.33064
H         10.03412       -0.56994       -0.36066
C          8.08354       -1.38224        0.17947
C          8.51937       -2.61926        0.74526
N          8.89689       -3.62661        1.17784
C          6.70297       -0.95392        0.06182
C          5.53028       -1.60430        0.45835
O          5.55416       -2.81071        1.08804
C          5.53024       -3.93978        0.21517
C          4.32635       -0.94971        0.22872
S          2.75238       -1.56551        0.66137
C         -0.29424       -1.15219       -0.29645
C         -1.67885       -1.06621       -0.27485
C         -2.29596        0.13061        0.09714
C         -3.69201        0.58481        0.11899
C         -3.63429        2.04717        0.49392
O         -4.54913        2.79745        0.72383
N         -2.26908        2.36802        0.66028
C         -1.74478        3.60468        1.07155
O         -0.62823        3.73221        1.51423
O         -2.61173        4.58869        0.88916
C         -2.15376        5.87564        1.31126
C         -1.47446        1.22948        0.41273
C         -0.09310        1.16056        0.40336
C         -4.87339       -0.07141       -0.07361
C         -4.98186       -1.57716        0.02078
O         -4.11444       -2.36771        0.29555
N         -6.34435       -1.89842       -0.16260
C         -6.91644       -3.17753       -0.10490
O         -8.10906       -3.36766       -0.05864
O         -5.99652       -4.13193       -0.12705
C         -6.50993       -5.46196       -0.03091
C         -7.09149       -0.71389       -0.37585
C         -8.44404       -0.60296       -0.65773
C         -8.94931        0.66978       -0.91340
H        -10.00762        0.78124       -1.12858
C         -8.12124        1.78853       -0.90426
C         -6.76861        1.66462       -0.61244
C         -6.23689        0.40470       -0.32115
H          5.26787        4.18336       -1.16130
H          6.34184        3.37449        0.02323
H          4.56250        3.25378        0.18383
H          5.62913       -4.81622        0.85502
H          6.36793       -3.91124       -0.48948
H          4.58449       -3.98358       -0.33800
H          0.17255       -2.08398       -0.59992
H         -2.27090       -1.92876       -0.53593
H         -2.97247        6.55654        1.08455
H         -1.25183        6.15699        0.76361
H         -1.94164        5.87181        2.38271
H          0.49935        2.01918        0.68358
H         -5.63255       -6.10635       -0.05687
H         -7.17464       -5.67896       -0.86993
H         -7.05532       -5.59357        0.90617
H         -9.07931       -1.47606       -0.67328
H         -8.53181        2.76990       -1.11773
H         -6.13810        2.53936       -0.59374
