44
COMP61_300000.log	Energy: -1262646.6302289
C          2.45724       -0.40216        0.40018
C          1.00206       -0.32634        0.31447
C          0.12570       -1.26157       -0.17583
C          0.58849       -2.48718       -0.74055
N          0.98493       -3.47543       -1.20097
C         -1.25709       -0.82408       -0.14412
C         -2.41449       -1.50690       -0.55351
C         -2.37722       -2.90310       -1.11664
C         -3.60491       -0.80439       -0.40314
S         -5.18052       -1.44032       -0.85127
C         -5.95247        0.00881       -0.34191
H         -7.02584        0.11411       -0.42664
C         -5.09513        0.94540        0.14544
C         -5.60388        2.19757        0.60760
N         -6.05881        3.19975        0.97394
C         -3.70299        0.51312        0.12813
C         -2.54755        1.18911        0.53915
C         -2.50274        2.58159        1.11014
C         -1.35351        0.48440        0.38269
S          0.21008        1.12760        0.82074
C          3.36562        0.51270       -0.04958
C          3.49076        1.75827       -0.80383
O          2.68038        2.54649       -1.24562
N          4.90383        1.90858       -0.93563
C          5.50458        3.03448       -1.61572
C          5.57469        0.86575       -0.33791
H          6.65601        0.82225       -0.36944
C          4.67864        0.00730        0.21514
C          4.55068       -1.27067        0.90483
O          5.35752       -2.04704        1.36922
N          3.13662       -1.46425        0.97837
C          2.58238       -2.57213        1.73171
H         -1.87680       -3.59455       -0.43296
H         -1.83454       -2.93523       -2.06632
H         -3.38239       -3.29216       -1.29639
H         -3.48414        3.04025        1.21103
H         -1.89470        3.23334        0.47130
H         -2.03880        2.57023        2.10365
H          4.68764        3.65785       -1.98321
H          6.11094        2.70080       -2.46317
H          6.12475        3.62263       -0.93243
H          3.32216       -2.85813        2.48133
H          2.38188       -3.43090        1.08674
H          1.65851       -2.26275        2.22584
