48
COMP93_000000.log	Energy: -838029.1020206
C         -0.95566       -0.49115        0.10541
C         -2.39645       -0.88653        0.14166
C         -2.97105       -1.36580       -1.03435
C         -4.28068       -1.84242       -1.06557
C         -4.90191       -2.33197       -2.34939
C         -4.99933       -1.84670        0.12910
H         -6.01897       -2.22451        0.14170
C         -4.42561       -1.38119        1.30665
C         -3.12081       -0.89277        1.34044
C         -2.52115       -0.36509        2.61722
C         -0.02621       -1.56251        0.12521
C          1.32777       -1.35116        0.06744
C          2.25487       -2.51544        0.09698
O          1.85106       -3.65819        0.18049
N          3.62061       -2.22484        0.02482
C          4.57325       -3.33269        0.04771
C          4.16881       -0.94573       -0.08748
O          5.37282       -0.79643       -0.16016
C          3.22049        0.19905       -0.11160
C          3.70358        1.48344       -0.22067
H          4.77457        1.64064       -0.28658
C          2.80840        2.56643       -0.25144
C          1.44882        2.35556       -0.16989
C          0.54099        3.52986       -0.21522
O          0.95993        4.66672       -0.31902
N         -0.82203        3.25436       -0.13080
C         -1.75999        4.37504       -0.14959
C         -1.39473        1.98448        0.01260
O         -2.60025        1.89063        0.12355
C         -0.47410        0.80975        0.02672
C          0.92529        1.04627       -0.05303
C          1.83078       -0.03651       -0.02934
H         -2.38144       -1.36364       -1.94871
H         -4.14679       -2.48301       -3.12656
H         -5.63253       -1.60963       -2.73196
H         -5.42706       -3.28122       -2.20012
H         -5.00494       -1.39899        2.22647
H         -3.16374       -0.58509        3.47419
H         -2.39861        0.72224        2.55793
H         -1.53501       -0.80009        2.81448
H         -0.39709       -2.58019        0.19026
H          4.01322       -4.25256        0.19798
H          5.29024       -3.18252        0.85664
H          5.11895       -3.37177       -0.89758
H          3.16945        3.58502       -0.34313
H         -1.18765        5.28474       -0.31451
H         -2.29290        4.42911        0.80220
H         -2.49036        4.22962       -0.94721
