59
COMP86_000012.log	Energy: -1006741.5443040
C          1.50510        0.18012       -0.23345
C          2.98785        0.17101       -0.25355
C          3.69850       -0.89934        0.30807
C          5.08235       -0.89135        0.28215
C          6.05383       -1.91598        0.82197
H          5.93468       -2.06073        1.90291
H          5.91376       -2.89731        0.35177
C          7.39636       -1.31240        0.47727
C          8.67031       -1.80542        0.71641
C          9.77220       -1.05918        0.29789
H         10.77538       -1.43443        0.47719
C          9.59754        0.16450       -0.34986
C          8.32006        0.66262       -0.59284
C          7.22117       -0.08306       -0.17734
C          5.78095        0.17800       -0.29849
C          5.08760        1.24471       -0.86039
C          3.69765        1.23263       -0.83343
C          0.77690       -0.99537       -0.45314
C         -0.61513       -1.01854       -0.43935
C         -1.32390        0.15947       -0.19701
C         -2.75036        0.54078       -0.16334
C         -2.74540        2.06152       -0.06456
O         -3.64042        2.87510       -0.14503
N         -1.43429        2.39856        0.20825
O         -0.99383        3.68801        0.06640
C         -1.16790        4.40314        1.28998
C         -0.56691        1.32946        0.00414
C          0.80961        1.37495       -0.00167
C         -3.89251       -0.19930       -0.10529
C         -3.88284       -1.70989        0.08791
O         -2.98356       -2.52192        0.01063
N         -5.18280       -2.03628        0.39670
O         -5.60839       -3.32173        0.55657
C         -5.73474       -3.97590       -0.71109
C         -6.06258       -0.97322        0.22786
C         -7.43885       -1.00959        0.32593
C         -8.12271        0.18238        0.08448
H         -9.20641        0.19793        0.15188
C         -7.43011        1.34301       -0.24600
C         -6.03674        1.35607       -0.33151
C         -5.32127        0.18566       -0.07602
H          3.16006       -1.71659        0.78109
H          8.81208       -2.75801        1.21997
H         10.46662        0.73255       -0.66833
H          8.18780        1.61549       -1.09784
H          5.61596        2.07411       -1.32210
H          3.14848        2.04958       -1.29273
H          1.30974       -1.91522       -0.67252
H         -1.14386       -1.94054       -0.62313
H         -0.72723        5.38423        1.10659
H         -0.64333        3.90134        2.10995
H         -2.23115        4.50681        1.52209
H          1.32662        2.31072        0.17773
H         -6.15719       -4.95494       -0.48203
H         -4.75420       -4.08923       -1.18074
H         -6.41427       -3.41789       -1.36471
H         -7.94999       -1.93121        0.58009
H         -7.97638        2.25953       -0.44373
H         -5.51411        2.26327       -0.59113
