30
COMP51_200110.log	Energy: -2154884.9842573
C          1.38214       -0.53395       -0.00196
C         -0.05391       -0.33085       -0.00163
C         -0.77550        0.82729       -0.00321
Cl        -0.09162        2.41864       -0.00678
C         -2.20468        0.65212       -0.00186
C         -3.20359        1.62490       -0.00314
H         -2.95116        2.68012       -0.00547
C         -4.52061        1.19105       -0.00142
S         -5.95026        2.20230       -0.00246
C         -6.98292        0.80226        0.00110
H         -8.05778        0.91860        0.00166
C         -6.29175       -0.35705        0.00298
Cl        -7.03585       -1.92197        0.00683
C         -4.85816       -0.18565        0.00159
C         -3.85829       -1.15646        0.00277
H         -4.11114       -2.21181        0.00507
C         -2.54227       -0.72102        0.00102
S         -1.12314       -1.73604        0.00164
C          2.05525       -1.73485       -0.00490
F          1.44509       -2.91220       -0.00808
N          3.39691       -1.72529       -0.00424
C          3.81834       -0.48686       -0.00051
S          2.58742        0.72719        0.00216
C          5.22531       -0.12976        0.00103
S          6.46293       -1.34530       -0.00386
C          7.64106       -0.09094        0.00137
H          8.70296       -0.28351        0.00072
C          7.00303        1.11280        0.00617
F          7.62304        2.28153        0.01115
N          5.65158        1.10540        0.00614
