32
COMP51_300110.log	Energy: -1693827.7137960
C          1.25315       -0.54982       -0.00385
C         -0.18085       -0.35657       -0.00414
C         -0.88842        0.82203       -0.00540
C         -0.31424        2.12403       -0.00861
N          0.10150        3.20791       -0.01137
C         -2.32300        0.64068       -0.00367
C         -3.31369        1.62090       -0.00349
H         -3.05123        2.67432       -0.00538
C         -4.63292        1.19186       -0.00101
S         -6.06192        2.20488        0.00002
C         -7.09349        0.81876        0.00365
H         -8.16814        0.94299        0.00539
C         -6.41513       -0.35957        0.00457
C         -7.03954       -1.64240        0.00839
N         -7.51118       -2.70167        0.01127
C         -4.97698       -0.18180        0.00163
C         -3.98458       -1.16050        0.00137
H         -4.24636       -2.21412        0.00331
C         -2.66702       -0.73031       -0.00145
S         -1.24798       -1.74828       -0.00196
C          1.93714       -1.74479       -0.00471
F          1.33540       -2.92408       -0.00736
N          3.27733       -1.72012       -0.00239
C          3.68280       -0.47523       -0.00005
S          2.44123        0.72805        0.00126
C          5.08525       -0.10125        0.00179
S          6.33975       -1.29807       -0.00218
C          7.49769       -0.02711        0.00304
H          8.56233       -0.20438        0.00290
C          6.84264        1.16871        0.00731
F          7.44604        2.34473        0.01162
N          5.49241        1.14022        0.00664
