35
COMP27_230400.log	Energy: -1991338.3560784
C         -3.26251       -0.05335        0.26540
C         -1.88883       -0.47982       -0.01382
C         -1.47801       -1.67448       -0.56561
C         -2.37805       -2.67860       -1.03123
N         -3.12081       -3.47887       -1.41961
C         -0.05647       -1.76908       -0.66736
Cl         0.72411       -3.15698       -1.33480
C          0.60913       -0.66075       -0.20909
S         -0.53207        0.51652        0.36555
C          2.04324       -0.45117       -0.19567
C          2.64658        0.70843        0.11736
C          4.08073        0.95064        0.15658
C          5.16603        0.11553        0.26497
Cl         5.09330       -1.60197        0.42089
C          6.42319        0.80533        0.27882
C          7.69464        0.16433        0.38892
N          8.73314       -0.34176        0.47822
C          6.27183        2.16202        0.18378
H          7.05601        2.90544        0.17181
S          4.62571        2.60505        0.07761
C         -3.76303        1.21801       -0.18047
N         -3.06875        2.14103       -0.83537
S         -4.09075        3.38301       -1.11824
N         -5.44562        2.79428       -0.42404
C         -5.13391        1.59597        0.05616
C         -6.01861        0.71719        0.74852
H         -7.05079        1.00581        0.91715
C         -5.51407       -0.46715        1.17911
O         -6.20840       -1.41588        1.85983
C         -4.13461       -0.85817        0.95660
O         -3.73006       -2.02886        1.46595
H          2.63100       -1.31818       -0.47666
H          2.03331        1.57775        0.35176
H         -7.13329       -1.15771        1.95425
H         -4.50007       -2.49844        1.82127
