40
COMP62_440002.log	Energy: -1332807.8179306
C          1.58472        0.61249       -0.09326
C          0.31487       -0.01050       -0.11057
C          0.04133       -1.38274       -0.17854
O          0.82449       -2.44043       -0.31709
C         -1.35057       -1.66062       -0.15503
O         -1.80950       -2.92924       -0.21303
C         -2.14936       -0.55056       -0.06350
S         -1.19310        0.90482       -0.04854
C         -3.59084       -0.52148       -0.00764
S         -4.56224       -1.97780       -0.05467
C         -6.02997       -1.07168        0.05207
H         -6.98552       -1.57802        0.05954
C         -5.79005        0.26459        0.11991
O         -6.65774        1.31170        0.21231
C         -4.40076        0.58293        0.08679
O         -3.94671        1.85449        0.14450
C          2.87746        0.07809       -0.00516
C          3.56907       -1.12726        0.31309
O          3.21191       -2.30195        0.51848
N          4.91070       -0.72037        0.34341
O          5.93629       -1.55133        0.68120
C          6.28131       -2.39816       -0.41922
C          5.07916        0.63271        0.13442
H          6.06095        1.07798        0.18770
C          3.83994        1.14190       -0.08752
C          3.13453        2.40114       -0.25676
O          3.47484        3.54856       -0.41580
N          1.76482        1.98691       -0.16011
O          0.76560        2.83782       -0.53636
C          0.45407        3.75672        0.51897
H          1.77963       -2.36627        0.03415
H         -1.02671       -3.50281       -0.25083
H         -7.56608        0.98974        0.21457
H         -4.71422        2.44291        0.18765
H          7.11741       -2.99803       -0.05794
H          6.59132       -1.79953       -1.28304
H          5.43948       -3.04416       -0.68095
H         -0.40760        4.31373        0.14987
H          1.29791        4.42754        0.69298
H          0.18728        3.21645        1.43267
