32
COMP72_020001.log	Energy: -2103857.7481472
C          0.97786        1.11791       -0.37188
C         -0.33094        0.47788       -0.46521
C         -0.69218       -0.67237       -1.11328
H          0.00322       -1.31755       -1.62809
C         -2.08205       -0.93232       -1.00578
Cl        -2.81185       -2.33108       -1.71984
C         -2.78358       -0.00188       -0.28451
S         -1.71042        1.23510        0.28034
C         -4.20969        0.03084        0.02977
S         -5.39834        0.42262       -1.17536
C         -6.68657        0.25065       -0.04942
H         -7.70939        0.40180       -0.36597
C         -6.24413       -0.08554        1.19334
H         -6.88151       -0.24878        2.05274
C         -4.82630       -0.20757        1.22956
Cl        -3.97244       -0.64112        2.67337
C          2.25438        0.60025       -0.24732
C          2.63496       -0.83418       -0.16509
O          1.85769       -1.76124       -0.31200
C          4.07430       -1.07663        0.10452
C          4.61760       -2.31951        0.26392
H          4.09556       -3.26589        0.23159
S          6.31203       -2.23296        0.53415
C          6.31238       -0.51828        0.42962
H          7.22085        0.05772        0.54033
C          5.05565       -0.03645        0.20050
C          4.70270        1.39057        0.06028
O          5.51892        2.29204        0.11989
C          3.25182        1.63634       -0.14425
C          2.73101        2.89337       -0.20762
H          3.28118        3.82238       -0.14715
S          1.03216        2.85978       -0.39534
