58
COMP97_410003.log	Energy: -1840183.1128558
C          0.85726       -0.09102        0.51176
C         -0.56555       -0.26634        0.86720
C         -1.08643       -0.41496        2.10931
F         -0.37712       -0.36755        3.24740
C         -2.49568       -0.60451        2.15294
O         -3.20032       -0.76597        3.29518
C         -3.05649       -0.61155        0.90270
S         -1.82693       -0.39301       -0.31775
C         -4.46383       -0.78604        0.61190
C         -5.04265       -0.66587       -0.59926
C         -6.44892       -0.92370       -0.85960
C         -7.26025       -1.85812       -0.26272
O         -6.92514       -2.75906        0.68694
C         -8.58606       -1.83664       -0.79265
F         -9.52330       -2.66800       -0.34053
C         -8.77790       -0.91922       -1.77234
H         -9.69141       -0.71780       -2.31142
S         -7.32547       -0.04390       -2.08698
C          1.66468       -1.25403        0.52101
C          2.99398       -1.20366        0.18743
C          3.79940       -2.45265        0.21448
O          3.35032       -3.53617        0.51758
N          5.14395       -2.30947       -0.13601
C          5.95993       -3.51115       -0.06938
O          6.56953       -3.83144        0.90721
O          5.89917       -4.14308       -1.22654
C          6.65543       -5.35877       -1.28688
C          5.79141       -1.13890       -0.54295
O          6.96039       -1.15965       -0.86013
C          4.95540        0.08981       -0.55356
C          5.52315        1.28712       -0.92262
H          6.57238        1.31069       -1.19641
C          4.74317        2.45683       -0.93898
C          3.41309        2.41316       -0.58728
C          2.62681        3.67008       -0.61817
O          3.08174        4.74528       -0.94415
N          1.29324        3.54458       -0.23619
C          0.49478        4.76009       -0.26959
O         -0.14755        5.09008       -1.22158
O          0.61353        5.39171        0.88313
C         -0.12512        6.61610        0.97448
C          0.63406        2.39408        0.21178
O         -0.50586        2.48243        0.60947
C          1.42579        1.12821        0.16459
C          2.79908        1.19406       -0.20162
C          3.58847        0.02170       -0.19047
H         -2.59605       -0.68763        4.04501
H         -5.07653       -0.98753        1.48905
H         -4.43732       -0.36486       -1.45463
H         -5.95930       -2.78643        0.75197
H          1.22337       -2.20693        0.79319
H          6.49436       -5.75015       -2.28971
H          6.29324       -6.06146       -0.53363
H          7.71348       -5.14988       -1.11649
H          5.17325        3.40955       -1.22835
H          0.06751        6.99608        1.97613
H         -1.18980        6.42201        0.83028
H          0.22620        7.32106        0.21815
