40
COMP92_100001.log	Energy: -1411382.6134422
C          0.57153       -0.27909        0.31775
C         -0.88576       -0.38277        0.51518
C         -1.51240       -1.09951        1.49318
F         -0.84408       -1.71493        2.47161
C         -2.92557       -1.13130        1.41448
H         -3.55881       -1.62026        2.14401
C         -3.37813       -0.43952        0.32343
S         -2.06749        0.23846       -0.59035
C         -4.75229       -0.24808       -0.11436
S         -5.94655       -1.47987        0.16518
C         -7.18368       -0.53937       -0.58046
H         -8.20060       -0.89424       -0.65689
C         -6.67410        0.63975       -1.02670
F         -7.40220        1.56857       -1.64858
C         -5.29053        0.82673       -0.76946
H         -4.74552        1.72548       -1.03072
C          1.25205       -1.50664        0.10964
C          2.59858       -1.55013       -0.13418
C          3.25871       -2.86583       -0.35644
O          2.67540       -3.92798       -0.32162
N          4.62177       -2.80271       -0.61665
H          5.08397       -3.69172       -0.76995
C          5.43344       -1.67708       -0.69368
O          6.61837       -1.77709       -0.93142
C          4.74376       -0.37814       -0.46552
C          5.46803        0.79021       -0.51877
H          6.53101        0.74105       -0.72884
C          4.82662        2.02042       -0.29813
C          3.47746        2.06647       -0.02681
C          2.84336        3.38686        0.21436
O          3.43472        4.44499        0.16260
N          1.49522        3.33077        0.52621
H          1.05343        4.21635        0.74554
C          0.66898        2.21732        0.64279
O         -0.47513        2.36021        1.01669
C          1.29980        0.90566        0.30347
C          2.69988        0.87953        0.03021
C          3.35351       -0.35402       -0.19341
H          0.69348       -2.43617        0.13017
H          5.37892        2.95332       -0.33427
