40
COMP55_000420.log	Energy: -1203367.6453608
C         -0.89571       -0.00377       -0.38818
C          0.52791       -0.36098       -0.34729
C          1.47354        0.62938       -0.06139
C          2.81529        0.26272       -0.06513
N          3.93129        1.03367        0.16859
O          3.89107        2.33284        0.58829
C          3.79018        2.39448        2.01545
C          5.07721        0.26401        0.11406
C          6.40444        0.63375        0.31354
C          7.36241       -0.36135        0.17858
H          8.40903       -0.11341        0.32709
C          7.00885       -1.67963       -0.14978
C          5.68142       -2.03196       -0.34928
C          4.69379       -1.05484       -0.21196
C          3.24785       -1.05580       -0.32512
C          2.28833       -2.03033       -0.60140
C          0.94716       -1.68183       -0.61602
C         -1.46649        1.10948       -0.96493
O         -0.82543        2.09294       -1.62634
N         -2.81736        1.21770       -0.87467
C         -3.30911        0.19204       -0.23587
S         -2.15541       -0.98165        0.30090
C         -4.72923        0.02094        0.02201
S         -5.88268        1.20412       -0.50230
C         -7.12783        0.22481        0.18300
H         -8.16790        0.51459        0.13733
C         -6.57730       -0.89684        0.74255
O         -7.21515       -1.90424        1.37317
N         -5.22422       -1.00915        0.65025
H          1.17628        1.64125        0.19750
H          3.75559        3.45878        2.25119
H          4.66424        1.93069        2.48410
H          2.87529        1.90144        2.36019
H          6.66836        1.65872        0.55075
H          7.78552       -2.43106       -0.24967
H          5.41392       -3.05351       -0.60358
H          2.58663       -3.05362       -0.80948
H          0.19987       -2.43212       -0.85483
H          0.09612        1.82618       -1.75437
H         -8.16181       -1.72112        1.37914
