38
COMP47_440000.log	Energy: -1477555.5939870
C         -2.68517       -0.75269       -0.31245
C         -1.34397       -0.23033       -0.24274
C         -0.90663        1.07294       -0.36352
O         -1.59944        2.20779       -0.53695
C          0.51590        1.19015       -0.36645
O          1.10652        2.39825       -0.47763
C          1.17674       -0.00413       -0.24299
S          0.02717       -1.31008       -0.10758
C          2.59642       -0.28054       -0.16202
C          3.57302        0.64042       -0.31730
C          4.98681        0.35083       -0.16115
C          5.58205       -0.56664        0.66538
O          4.98503       -1.42208        1.54265
C          7.00980       -0.56750        0.60190
O          7.76720       -1.39929        1.35401
C          7.48998        0.35492       -0.27557
H          8.52430        0.55457       -0.51288
S          6.21042        1.24608       -1.02355
C         -3.90751       -0.19308       -0.02404
C         -4.43237        1.06502        0.52436
O         -3.84881        2.09744        0.83515
N         -5.80276        0.89493        0.64302
C         -6.69707        1.91075        1.15827
C         -6.24732       -0.37133        0.20753
O         -7.39765       -0.73285        0.21302
C         -5.01076       -1.07002       -0.21616
C         -4.67188       -2.30404       -0.65440
H         -5.30561       -3.15546       -0.86016
S         -2.95582       -2.40021       -0.86338
H         -2.43834        2.21144       -0.00717
H          0.38910        3.05194       -0.51611
H          2.86795       -1.32350       -0.00568
H          3.30115        1.66359       -0.56118
H          4.10017       -1.08843        1.75086
H          7.16565       -1.90562        1.91822
H         -6.27115        2.89192        0.94540
H         -6.82863        1.80048        2.23840
H         -7.66469        1.79947        0.66714
