35
COMP15_000020.log	Energy: -836955.8281292
C         -2.66674       -0.82806       -0.18693
C         -1.21087       -0.93158       -0.12251
C         -0.42115        0.19491       -0.36040
C          0.95527        0.03539       -0.27270
N          1.95042        0.96993       -0.45053
O          1.72786        2.30362       -0.63759
C          1.52034        2.95637        0.62109
C          3.19058        0.40810       -0.23161
C          4.45221        0.99685       -0.27437
C          5.53954        0.17364       -0.02053
H          6.53932        0.59662       -0.04500
C          5.37744       -1.19289        0.26095
C          4.11511       -1.76605        0.29837
C          2.99930       -0.96183        0.05475
C          1.57062       -1.19907        0.02982
C          0.76044       -2.31483        0.25132
C         -0.61454       -2.17553        0.18274
C         -3.60481       -1.74981       -0.44546
C         -4.99528       -1.26346       -0.35399
C         -5.11930        0.02133       -0.02060
H         -6.00518        0.62922        0.09707
S         -3.50275        0.73060        0.20572
O         -3.27404        1.07478        1.60441
O         -3.24461        1.73317       -0.82491
H         -0.85613        1.15289       -0.62480
H          1.35710        4.00585        0.37386
H          2.40396        2.84956        1.25902
H          0.63886        2.54915        1.12666
H          4.56945        2.05027       -0.50373
H          6.25322       -1.80508        0.45111
H          3.99336       -2.82337        0.51530
H          1.20162       -3.27701        0.49336
H         -1.25019       -3.02875        0.39666
H         -3.38022       -2.77545       -0.71521
H         -5.83667       -1.91641       -0.55687
