52
COMP84_000003.log	Energy: -1479120.2454745
C         -2.48749       -0.46427        0.13609
C         -3.93012       -0.73104        0.15577
C         -4.91426       -0.00479       -0.45928
H         -4.71622        0.86734       -1.07035
C         -6.20160       -0.55985       -0.22659
S         -7.81783       -0.15325       -0.70415
C         -8.44631       -1.52201        0.16567
H         -9.51207       -1.70616        0.16525
C         -7.48401       -2.25641        0.78866
H         -7.68709       -3.14368        1.37486
C         -6.19211       -1.69912        0.55907
S         -4.57831       -2.10628        1.03512
C         -1.55030       -1.49350        0.28692
C         -0.18762       -1.24191        0.24275
C          0.27630        0.05879        0.02880
C          1.60853        0.66486        0.03182
C          1.37696        2.14951       -0.11723
O          2.19713        3.02155       -0.25311
N         -0.02439        2.33775       -0.18887
C         -0.69660        3.55268       -0.37535
O         -1.87885        3.62499       -0.61995
O          0.11069        4.59456       -0.23342
C         -0.51320        5.86514       -0.42621
C         -0.67950        1.08705       -0.09023
C         -2.04029        0.85343       -0.03725
C          2.86341        0.12728        0.08596
C          3.13135       -1.31985       -0.24799
O          2.34585       -2.15688       -0.61692
N          4.53072       -1.50391       -0.16212
C          5.23796       -2.68010       -0.44404
O          6.44143       -2.71964       -0.55298
O          4.43374       -3.72878       -0.55579
C          5.09131       -4.95424       -0.88165
C          5.15132       -0.28954        0.22064
C          6.49420       -0.06835        0.48519
C          6.86519        1.19639        0.93586
H          7.91267        1.39305        1.14316
C          5.91762        2.19702        1.13021
C          4.57623        1.96476        0.85262
C          4.17594        0.71540        0.36978
H         -1.88832       -2.51734        0.41487
H          0.50984       -2.05786        0.34624
H          0.28554        6.59494       -0.30371
H         -1.29722        6.02217        0.31812
H         -0.94666        5.93294       -1.42636
H         -2.73853        1.67400       -0.10886
H          4.29584       -5.69517       -0.94344
H          5.81028       -5.22307       -0.10467
H          5.61025       -4.86613       -1.83869
H          7.22240       -0.85308        0.34309
H          6.22375        3.17169        1.49624
H          3.85204        2.75147        0.99317
