53
COMP66_000003.log	Energy: -957023.4218241
C         -1.14744        1.04198        0.04373
C          0.29903        0.90528       -0.08283
C          0.91294       -0.24145        0.44272
C          2.26837       -0.42512        0.25483
C          3.12751       -1.59334        0.70933
C          3.13201       -1.72467        2.24093
C          2.64983       -2.90386        0.05905
C          4.49136       -1.17340        0.18155
C          5.70388       -1.83752        0.29029
C          6.84250       -1.26402       -0.27584
H          7.79841       -1.77298       -0.19497
C          6.76698       -0.04088       -0.94387
C          5.55181        0.62894       -1.05742
C          4.41805        0.05513       -0.49085
C          3.02690        0.51895       -0.44987
C          2.42401        1.65525       -0.98384
C          1.06280        1.84311       -0.79692
C         -2.09552        0.06047        0.06245
C         -2.23404       -1.39144       -0.01586
O         -1.43004       -2.29070        0.04118
N         -3.67527       -1.55697       -0.14843
C         -4.42468       -2.73750       -0.25383
O         -5.62843       -2.72562       -0.36211
O         -3.65788       -3.81562       -0.22118
C         -4.36042       -5.05551       -0.33012
C         -4.32446       -0.31748       -0.15942
H         -5.39592       -0.28228       -0.28938
C         -3.40038        0.65096       -0.01700
C         -3.26264        2.10453       -0.03305
O         -4.07424        2.99209       -0.01732
N         -1.81868        2.28377       -0.00800
C         -1.23192        3.49739        0.42535
O         -0.36705        3.56728        1.26025
O         -1.76979        4.51797       -0.22752
C         -1.35985        5.80975        0.22581
H          0.31966       -0.97975        0.97119
H          2.12890       -1.96617        2.60874
H          3.45840       -0.79320        2.71321
H          3.80968       -2.52625        2.55452
H          1.62181       -3.13084        0.36047
H          3.29255       -3.73802        0.36172
H          2.67550       -2.82665       -1.03210
H          5.77159       -2.79111        0.80768
H          7.66348        0.39147       -1.37792
H          5.49441        1.58180       -1.57634
H          3.00138        2.38256       -1.54665
H          0.58148        2.71048       -1.23710
H         -3.59334       -5.82395       -0.25043
H         -4.87179       -5.12057       -1.29314
H         -5.09204       -5.15294        0.47482
H         -1.93531        6.51676       -0.36931
H         -0.28848        5.94768        0.06352
H         -1.58300        5.92973        1.28812
