52
COMP91_400021.log	Energy: -1572756.6457886
C          1.33042        0.01627        0.07105
C         -0.13204        0.12782        0.18442
C         -1.01206        0.93272       -0.49477
O         -0.68218        1.95808       -1.29192
C         -2.39666        0.54166       -0.32844
C         -3.55845        1.11245       -0.86593
O         -3.56178        2.18981       -1.69747
C         -3.39657        3.44211       -1.04038
C         -4.77317        0.51471       -0.54798
S         -6.32304        1.07745       -1.12186
C         -7.12453       -0.19288       -0.23200
H         -8.20315       -0.27593       -0.26992
C         -6.27386       -0.99718        0.45019
O         -6.60126       -2.06458        1.22200
C         -4.88533       -0.61963        0.28954
C         -3.72379       -1.18269        0.83428
O         -3.72608       -2.25267        1.67944
C         -3.84558       -3.51388        1.02866
C         -2.51118       -0.59245        0.50425
S         -0.96542       -1.14041        1.09404
C          1.79369       -1.29214       -0.27005
C          3.11604       -1.59019       -0.42105
C          3.50873       -2.96933       -0.82544
O          2.71656       -3.86043       -1.04311
N          4.87675       -3.17932       -0.94255
H          5.15960       -4.11216       -1.22062
C          5.90773       -2.27443       -0.72122
O          7.06690       -2.60268       -0.85938
C          5.48167       -0.90877       -0.30823
C          6.44053        0.04288       -0.03915
H          7.48822       -0.21831       -0.13923
C          6.04482        1.32115        0.37529
C          4.70684        1.64046        0.48637
C          4.34731        2.99194        0.96771
O          5.14421        3.85372        1.27209
N          2.98063        3.22168        1.05008
H          2.70368        4.15940        1.31834
C          1.94599        2.39976        0.65015
O          0.81442        2.87292        0.63226
C          2.29599        1.01145        0.27692
C          3.69272        0.69441        0.18472
C          4.10652       -0.60347       -0.18853
H         -0.00688        2.46803       -0.79698
H         -3.47925        4.20345       -1.81701
H         -2.41300        3.50859       -0.56676
H         -4.18458        3.59192       -0.29226
H         -7.56113       -2.16149        1.22842
H         -3.74357       -4.26848        1.80976
H         -3.04898       -3.64411        0.28589
H         -4.82427       -3.61384        0.54967
H          1.06789       -2.07635       -0.45505
H          6.77824        2.08039        0.62447
