65
COMP96_000030.log	Energy: -1243448.8758403
C         -1.10882       -0.32351       -0.43398
C          0.33306       -0.58605       -0.68960
C          1.28822        0.13807        0.02907
C          2.62861       -0.03332       -0.26889
C          3.83986        0.63964        0.36205
C          3.78117        2.16490        0.20642
O          4.53526        2.83498       -0.44772
O          2.74411        2.65514        0.89898
C          2.58083        4.07345        0.83718
C          4.06012        0.33560        1.84648
O          4.75494        1.01870        2.56045
O          3.46062       -0.78997        2.22746
C          3.71190       -1.19142        3.57522
C          4.98920        0.02147       -0.42216
C          6.34657        0.25212       -0.27868
C          7.22527       -0.44711       -1.10557
H          8.29431       -0.28264       -1.01282
C          6.74456       -1.35418       -2.05075
C          5.37730       -1.58106       -2.19207
C          4.49965       -0.88575       -1.36834
C          3.03474       -0.90970       -1.28004
C          2.08696       -1.62049       -2.01002
C          0.74258       -1.45193       -1.71054
C         -1.51189        1.03490       -0.52927
C         -2.81807        1.42016       -0.37728
C         -3.17338        2.86205       -0.47937
O         -2.33256        3.72040       -0.66180
N         -4.52849        3.17857       -0.35196
C         -4.93185        4.57989       -0.44930
C         -5.55430        2.25739       -0.12808
O         -6.70552        2.63301       -0.02578
C         -5.16983        0.82534       -0.02043
C         -6.13899       -0.12715        0.19978
H         -7.17408        0.18386        0.28907
C         -5.77645       -1.48055        0.30562
C         -4.45660       -1.86423        0.19955
C         -4.12233       -3.30528        0.32407
O         -4.97650       -4.15714        0.47725
N         -2.76785       -3.62493        0.27112
C         -2.37781       -5.01837        0.47728
C         -1.71566       -2.70996        0.13442
O         -0.57473       -3.10434        0.25933
C         -2.07349       -1.28594       -0.14699
C         -3.43949       -0.90664       -0.02783
C         -3.81472        0.44959       -0.14290
H          0.98357        0.82145        0.81500
H          1.69385        4.29226        1.43034
H          2.43919        4.39601       -0.19670
H          3.45796        4.57186        1.25560
H          3.16604       -2.12456        3.70647
H          3.35252       -0.43163        4.27306
H          4.78197       -1.34526        3.73232
H          6.70987        0.96207        0.45689
H          7.44458       -1.89020       -2.68470
H          5.00919       -2.28876       -2.92927
H          2.38802       -2.29642       -2.80466
H         -0.00562       -1.99852       -2.27583
H         -0.76658        1.79399       -0.74284
H         -4.04390        5.16742       -0.67001
H         -5.37791        4.90391        0.49338
H         -5.67412        4.69251       -1.24146
H         -6.52635       -2.24590        0.47280
H         -3.28227       -5.62178        0.45758
H         -1.87141       -5.12839        1.43894
H         -1.69100       -5.32466       -0.31282
