56
COMP71_400023.log	Energy: -2098848.0931437
C          0.25358       -1.67772       -0.34407
C         -1.06697       -1.10556       -0.16387
C         -1.64987       -0.04150       -0.81261
O         -1.05779        0.77691       -1.68388
C         -3.06239        0.09697       -0.52098
C         -3.98163        1.04725       -0.98822
O         -3.67224        2.05132       -1.85255
C         -2.98169        3.14985       -1.26676
C         -5.29971        0.92778       -0.56120
S         -6.58424        2.01457       -1.02879
C         -7.71235        1.12232       -0.03883
H         -8.74656        1.43777        0.01343
C         -7.15552        0.06424        0.59836
O         -7.77982       -0.81100        1.42707
C         -5.74367       -0.08806        0.31706
C         -4.82245       -1.03209        0.78913
O         -5.14012       -2.02657        1.66621
C         -5.76620       -3.15719        1.06825
C         -3.50900       -0.91796        0.35381
S         -2.22253       -1.98422        0.84968
C          1.53233       -1.13344       -0.38614
C          1.89967        0.27040       -0.21669
O          1.10856        1.20989       -0.30455
C          3.33513        0.52652        0.05507
C          3.84552        1.74741        0.42374
C          3.12528        3.02043        0.73076
O          3.38071        4.07171        0.19618
O          2.22699        2.84205        1.69418
C          1.39133        3.96949        1.96509
S          5.55804        1.71806        0.49709
C          5.61218        0.04056        0.09944
C          6.92229       -0.67021        0.15554
O          7.09131       -1.77465        0.59940
O          7.89904        0.13063       -0.29640
C          9.21772       -0.41661       -0.21127
C          4.35499       -0.46147       -0.13167
C          4.01011       -1.83725       -0.58978
O          4.82980       -2.64768       -0.96849
C          2.55724       -2.13287       -0.54933
C          2.06264       -3.39594       -0.63614
H          2.63443       -4.30598       -0.75659
S          0.35462       -3.41388       -0.50493
H         -0.14978        0.95830       -1.34431
H         -1.98802        2.84750       -0.92441
H         -3.55918        3.56770       -0.43300
H         -2.88315        3.89803       -2.05426
H         -8.70649       -0.55527        1.50901
H         -5.88036       -3.89597        1.86275
H         -5.13750       -3.57085        0.27026
H         -6.75081       -2.89258        0.67077
H          0.72540        3.65110        2.76543
H          0.81981        4.23018        1.07118
H          1.99195        4.82683        2.27702
H          9.87878        0.35035       -0.61194
H          9.28472       -1.33279       -0.80183
H          9.46937       -0.63979        0.82829
