52
COMP97_310000.log	Energy: -1624979.4601591
C          1.53336       -0.14284        0.24816
C          0.08115       -0.07398        0.51807
C         -0.52489        0.27885        1.68066
F          0.13971        0.65103        2.76840
C         -1.94802        0.24960        1.64898
C         -2.73913        0.59639        2.77967
N         -3.39070        0.87479        3.69811
C         -2.42971       -0.14215        0.41038
S         -1.11384       -0.46524       -0.66601
C         -3.77807       -0.31171       -0.09834
C         -4.90994       -0.12568        0.60818
C         -6.25919       -0.28072        0.09570
C         -6.74206       -0.65240       -1.14938
C         -5.95125       -0.99503       -2.28158
N         -5.30045       -1.27317       -3.20068
C         -8.16911       -0.66099       -1.18761
F         -8.82517       -0.98976       -2.29348
C         -8.76403       -0.31078       -0.01937
H         -9.82137       -0.24419        0.18830
S         -7.57582        0.04320        1.17258
C          2.14587       -1.41493        0.34164
C          3.49385       -1.57545        0.13816
C          4.09574       -2.93321        0.25435
O          3.42362       -3.90944        0.51877
N          5.47342       -3.02297        0.04252
C          6.11295       -4.33392        0.14309
C          6.31424       -1.95057       -0.26155
O          7.50469       -2.12776       -0.42533
C          5.68750       -0.60604       -0.37065
C          6.46598        0.48896       -0.66676
H          7.53112        0.35173       -0.81790
C          5.87780        1.76316       -0.76905
C          4.52443        1.92760       -0.57545
C          3.94312        3.28993       -0.68958
O          4.62532        4.26221       -0.94420
N          2.56617        3.39062       -0.48967
C          1.94076        4.70813       -0.60218
C          1.70130        2.33015       -0.21315
O          0.51067        2.54478       -0.10798
C          2.30523        0.96910       -0.06799
C          3.70061        0.81787       -0.27028
C          4.29716       -0.45801       -0.16810
H         -3.83818       -0.60669       -1.14183
H         -4.85020        0.16970        1.65153
H          1.54423       -2.28370        0.58821
H          5.34087       -5.06560        0.36832
H          6.86519       -4.31729        0.93395
H          6.60484       -4.57469       -0.80111
H          6.47795        2.63632       -1.00078
H          2.72749        5.43426       -0.79123
H          1.41627        4.94380        0.32542
H          1.21810        4.70643       -1.42036
