42
COMP94_200000.log	Energy: -1864420.3474843
C          0.04261       -0.21567       -0.06657
C         -1.43321       -0.27446        0.02405
C         -2.20504       -0.01590        1.11653
Cl        -1.58982        0.54603        2.63095
C         -3.58923       -0.23561        0.86905
S         -5.04238       -0.10246        1.79687
C         -5.98412       -0.63625        0.43789
H         -7.05746       -0.72965        0.52218
C         -5.22267       -0.89962       -0.65790
Cl        -5.84317       -1.45299       -2.17474
C         -3.83723       -0.66986       -0.41564
S         -2.38311       -0.81295       -1.33928
C          0.73299       -1.44852        0.02000
C          2.10418       -1.50360       -0.00347
C          2.78642       -2.82376        0.09299
O          2.16291       -3.86239        0.17906
N          4.18374       -2.80412        0.07663
C          4.90255       -4.07415        0.16457
C          4.97363       -1.65626       -0.01047
O          6.18569       -1.74095       -0.01021
C          4.26651       -0.35143       -0.10361
C          4.99193        0.81460       -0.18829
H          6.07524        0.76110       -0.18611
C          4.32746        2.05156       -0.27321
C          2.95134        2.10838       -0.27804
C          2.28794        3.43516       -0.36382
O          2.92258        4.47016       -0.41661
N          0.89398        3.42551       -0.38635
C          0.19090        4.70199       -0.50904
C          0.08451        2.28609       -0.36744
O         -1.11637        2.40561       -0.49457
C          0.76316        0.96508       -0.19557
C          2.18113        0.92389       -0.19556
C          2.85425       -0.31366       -0.10155
H          0.17102       -2.37154        0.11772
H          4.16554       -4.87111        0.22599
H          5.54124       -4.07539        1.05001
H          5.53108       -4.20226       -0.71869
H          4.88461        2.98001       -0.33407
H          0.92733        5.49701       -0.42247
H         -0.55739        4.78114        0.28086
H         -0.31521        4.75854       -1.47517
