30
COMP51_100010.log	Energy: -1578101.3102951
C         -1.48902        0.56793       -0.00295
C         -0.04559        0.45976       -0.00251
C          0.71671       -0.66193       -0.00387
F          0.20583       -1.89774       -0.00607
C          2.13488       -0.45672       -0.00238
C          3.14801       -1.41323       -0.00307
H          2.91050       -2.47160       -0.00528
C          4.45565       -0.95001       -0.00106
S          5.91687       -1.91783       -0.00119
C          6.91210       -0.48489        0.00231
H          7.99000       -0.55888        0.00343
C          6.17476        0.64247        0.00351
F          6.68184        1.87751        0.00615
C          4.75159        0.43472        0.00166
C          3.73606        1.39103        0.00218
H          3.97306        2.44955        0.00435
C          2.43090        0.92786        0.00012
S          0.97174        1.89956        0.00036
C         -2.24430        1.71503       -0.00539
H         -1.83768        2.72008       -0.00857
N         -3.59568        1.54876       -0.00359
C         -3.89832        0.28004       -0.00082
S         -2.54817       -0.81122        0.00115
C         -5.26218       -0.22421        0.00117
S         -6.62339        0.85778       -0.00196
C         -7.65822       -0.51783        0.00341
H         -8.73403       -0.41508        0.00378
C         -6.91930       -1.66320        0.00726
H         -7.32697       -2.66641        0.01145
N         -5.56133       -1.49290        0.00631
