40
COMP51_400120.log	Energy: -1816150.8150011
C          1.60662       -0.54914        0.27420
C          0.16324       -0.40867        0.17654
C         -0.56159        0.70317        0.49245
O         -0.07284        1.86323        0.98495
C         -1.97874        0.55431        0.25749
C         -3.02686        1.45961        0.46699
O         -2.84928        2.71602        0.96298
C         -2.40413        3.66986        0.00343
C         -4.31608        1.02634        0.18099
S         -5.74942        2.00628        0.36905
C         -6.73719        0.69268       -0.22299
H         -7.80834        0.82365       -0.30692
C         -6.02949       -0.41968       -0.53389
O         -6.51940       -1.59266       -1.00931
C         -4.60685       -0.26960       -0.30683
C         -3.55813       -1.17422       -0.51423
O         -3.73327       -2.43239       -1.00886
C         -4.16591       -3.38670       -0.04445
C         -2.26844       -0.74062       -0.23183
S         -0.84107       -1.72498       -0.42625
C          2.34113       -1.51448        0.91243
F          1.79645       -2.50936        1.59129
N          3.68622       -1.44613        0.84796
C          4.03886       -0.40396        0.14363
S          2.73370        0.53448       -0.50332
C          5.42277       -0.03079       -0.09065
S          6.73252       -0.97147        0.54767
C          7.83157        0.13797       -0.17562
H          8.90295        0.03558       -0.09712
C          7.12067        1.10281       -0.82322
F          7.66700        2.10990       -1.48506
N          5.77217        1.01991       -0.78412
H          0.86027        1.74639        1.21170
H         -2.38226        4.63031        0.51995
H         -3.10184        3.72246       -0.84100
H         -1.39903        3.42632       -0.35431
H         -7.47556       -1.51281       -1.11004
H         -4.19041       -4.34755       -0.56014
H         -5.16780       -3.14384        0.32255
H         -3.45984       -3.43759        0.79334
