44
COMP71_300012.log	Energy: -1834301.0360184
C         -0.41308       -1.80656        0.17630
C          0.93778       -1.25376        0.11211
C          1.46642       -0.25767        0.88075
C          0.74595        0.43159        1.89892
N          0.20510        1.00205        2.75119
C          2.85272        0.02318        0.58509
C          3.68373        0.97230        1.17733
H          3.30668        1.62470        1.95872
C          4.99249        1.04462        0.72475
S          6.23650        2.14001        1.29354
C          7.38542        1.47404        0.18789
H          8.39554        1.86001        0.15729
C          6.87782        0.47410       -0.58091
C          7.62563       -0.23472       -1.56786
N          8.20186       -0.83205       -2.37768
C          5.48421        0.19525       -0.29624
C          4.65358       -0.75434       -0.88796
H          5.02889       -1.40666       -1.67034
C          3.34503       -0.82630       -0.43560
S          2.10279       -1.91421       -1.00810
C         -1.63087       -1.17692        0.05566
C         -1.84631        0.26008       -0.29578
O         -0.92513        1.01653       -0.54720
C         -3.26175        0.66349       -0.32762
C         -3.68365        1.94509       -0.55383
O         -2.90620        2.99143       -0.80129
C         -3.49523        4.27875       -0.87029
S         -5.44006        2.08024       -0.50145
C         -5.58386        0.35690       -0.16933
O         -6.76084       -0.23626       -0.00925
C         -7.93623        0.55441       -0.05447
C         -4.36308       -0.25473       -0.10510
C         -4.15824       -1.68420        0.16334
O         -5.05440       -2.49462        0.32544
C         -2.72621       -2.08390        0.22958
C         -2.32666       -3.36715        0.46383
H         -2.97033       -4.22129        0.62432
S         -0.62259       -3.50352        0.48942
H         -2.67372        4.97116       -1.04857
H         -3.99268        4.53266        0.07305
H         -4.21033        4.33924       -1.70004
H         -8.76186       -0.13639        0.11083
H         -8.04965        1.03339       -1.03474
H         -7.92873        1.31483        0.73544
