52
COMP71_100003.log	Energy: -2034627.6498277
C          0.00950       -2.04370        0.22386
C         -1.33339       -1.49812        0.12848
C         -1.81393       -0.39201        0.74541
F         -1.06388        0.34115        1.56283
C         -3.19728       -0.08346        0.48842
C         -3.97407        0.99106        0.94398
C         -3.46441        2.09634        1.82996
C         -5.30092        0.98659        0.52174
S         -6.47404        2.21410        0.96530
C         -7.71053        1.41662        0.03918
H         -8.71298        1.81547       -0.01772
C         -7.25584        0.29934       -0.55893
F         -8.03996       -0.47257       -1.32284
C         -5.86360       -0.00785       -0.31880
C         -5.08152       -1.07466       -0.78403
C         -5.57859       -2.17107       -1.68834
C         -3.75739       -1.07390       -0.35580
S         -2.58322       -2.29018       -0.81748
C          1.22897       -1.40578        0.14640
C          1.45422        0.02054       -0.18752
O          0.58116        0.77342       -0.56918
C          2.88068        0.45721       -0.10829
C          3.29661        1.75807       -0.24434
C          2.47496        3.00642       -0.23307
O          1.62269        3.25505        0.57831
O          2.87338        3.83692       -1.20479
C          2.18559        5.09028       -1.24913
S          5.01104        1.86788       -0.30499
C          5.19473        0.16392       -0.13392
C          6.56016       -0.42846       -0.23584
O          6.83774       -1.42520       -0.84791
O          7.45040        0.35429        0.39302
C          8.81065       -0.07415        0.29217
C          3.97661       -0.46173       -0.01657
C          3.75519       -1.89995        0.30615
O          4.65222       -2.67055        0.58155
C          2.32978       -2.30721        0.33387
C          1.93628       -3.59733        0.53412
H          2.58195       -4.45183        0.68389
S          0.23109       -3.74450        0.51871
H         -2.38176        2.07663        1.93346
H         -3.90713        2.02012        2.83061
H         -3.74764        3.07235        1.41938
H         -6.63389       -2.06019       -1.92633
H         -5.43565       -3.15080       -1.21649
H         -5.01458       -2.17608       -2.62905
H          2.62948        5.63568       -2.08057
H          2.32303        5.63317       -0.31107
H          1.11893        4.92802       -1.41818
H          9.39189        0.67195        0.83209
H          9.11890       -0.12251       -0.75495
H          8.93052       -1.05981        0.74714
