46
COMP72_230003.log	Energy: -2505462.4113581
C         -0.05223       -2.02542        0.10184
C          1.24745       -1.44112        0.43037
C          1.66887       -0.95554        1.63576
Cl         0.70764       -0.96108        3.06070
C          2.99180       -0.41813        1.59841
C          3.63167        0.16360        2.73355
N          4.15506        0.62759        3.65769
C          3.56252       -0.50908        0.34316
S          2.47371       -1.24571       -0.77243
C          4.90355       -0.10709       -0.06495
S          6.27607       -0.44320        0.92915
C          7.35897        0.26259       -0.19903
H          8.41976        0.30969        0.00115
C          6.70338        0.73055       -1.29487
Cl         7.48025        1.50739       -2.62428
C          5.28802        0.52358       -1.23322
C          4.38844        0.95027       -2.25534
N          3.66484        1.29287       -3.09341
C         -1.26796       -1.39652       -0.00374
C         -1.49367        0.06455        0.13893
O         -0.58616        0.86438        0.23753
C         -2.92597        0.47344        0.06950
C         -3.38022        1.75412        0.27001
C         -2.65064        2.92640        0.84308
O         -1.96293        2.88353        1.82819
O         -2.93085        4.03470        0.14767
C         -2.31717        5.23050        0.63998
S         -5.05258        1.89325       -0.09745
C         -5.17242        0.22608       -0.51096
C         -6.46116       -0.29059       -1.05852
O         -6.56331       -1.05341       -1.98192
O         -7.49265        0.27823       -0.41740
C         -8.78725       -0.08393       -0.90524
C         -3.96780       -0.41740       -0.35605
C         -3.74525       -1.88852       -0.46461
O         -4.64022       -2.69555       -0.60520
C         -2.32963       -2.30384       -0.31001
C         -1.90356       -3.59529       -0.43424
H         -2.51460       -4.45703       -0.66647
S         -0.21756       -3.72950       -0.17569
H         -2.65207        6.02366       -0.02659
H         -1.22994        5.13306        0.60959
H         -2.63317        5.42625        1.66714
H         -9.49306        0.49105       -0.30771
H         -8.95252       -1.15536       -0.77288
H         -8.88152        0.16637       -1.96432
