54
COMP81_000021.log	Energy: -1433289.1962262
C         -0.04141        0.10761        0.09964
C         -1.51001        0.14525        0.08814
C         -2.35461       -0.87318       -0.22115
H         -2.02053       -1.85161       -0.54591
C         -3.74166       -0.50745       -0.14461
C         -4.86651       -1.29728       -0.40116
O         -4.74143       -2.60718       -0.77814
C         -4.61514       -3.50402        0.31850
C         -6.11831       -0.70853       -0.27831
S         -7.65900       -1.48742       -0.54936
C         -8.49785       -0.01269       -0.14042
H         -9.57973       -0.00046       -0.15902
C         -7.67613        1.01302        0.17350
H         -8.01783        1.99861        0.46493
C         -6.28390        0.64680        0.09842
C         -5.15794        1.43710        0.35169
O         -5.28045        2.74683        0.72916
C         -5.40438        3.64532       -0.36680
C         -3.90686        0.84871        0.22748
S         -2.36807        1.62567        0.50270
C          0.72087        1.23994       -0.20720
C          2.11234        1.20812       -0.21124
C          2.78447        0.02429        0.09767
C          4.19877       -0.40099        0.14058
C          4.14611       -1.88647        0.47953
O          5.04155       -2.69033        0.64450
N          2.81732       -2.19699        0.63098
H          2.51676       -3.12998        0.86440
C          1.99379       -1.10853        0.38737
C          0.61471       -1.09262        0.40770
C          5.36738        0.28353       -0.02079
C          5.43631        1.80593       -0.08060
O          4.55105        2.63666       -0.02791
N          6.76779        2.12440       -0.16256
H          7.07971        3.08124       -0.21159
C          7.57522        0.99655       -0.21518
C          8.95012        0.96096       -0.36073
C          9.55985       -0.29026       -0.43371
H         10.63782       -0.35308       -0.54823
C          8.79778       -1.45295       -0.37053
C          7.41303       -1.39948       -0.21763
C          6.77383       -0.16111       -0.12283
H         -4.52125       -4.50290       -0.11037
H         -5.49988       -3.46316        0.96539
H         -3.72327       -3.27357        0.91484
H         -5.49679        4.64362        0.06349
H         -6.29620        3.41751       -0.96383
H         -4.51900        3.60381       -1.01284
H          0.22030        2.16723       -0.46819
H          2.66995        2.10120       -0.44481
H          0.05196       -1.98179        0.67347
H          9.52869        1.87727       -0.42364
H          9.28354       -2.42086       -0.43807
H          6.83821       -2.30991       -0.15729
