39
COMP36_000000.log	Energy: -757817.1026464
C          2.29758       -0.19288       -0.11727
C          0.83243       -0.41236       -0.21299
C         -0.05605        0.55546        0.27364
C         -1.41830        0.33731        0.17686
C         -2.55348        1.24094        0.63488
C         -2.50203        1.47661        2.15328
C         -2.53100        2.58260       -0.11708
C         -3.76650        0.40966        0.24261
C         -5.11031        0.70658        0.41275
C         -6.06640       -0.20889       -0.02805
H         -7.12211        0.01020        0.10171
C         -5.67891       -1.40532       -0.63259
C         -4.33033       -1.70736       -0.80528
C         -3.37944       -0.79375       -0.36313
C         -1.91204       -0.83900       -0.40264
C         -1.03868       -1.80495       -0.88928
C          0.33071       -1.58578       -0.78973
C          3.15467       -1.16511        0.40308
F          2.66466       -2.32848        0.84187
C          4.52488       -0.95575        0.49279
F          5.29390       -1.91947        1.00429
C          5.09303        0.23295        0.06799
H          6.16114        0.39579        0.14029
C          4.25761        1.20793       -0.44966
F          4.76593        2.36610       -0.87674
C          2.88759        0.99984       -0.54183
F          2.13559        1.97468       -1.06266
H          0.32916        1.46516        0.72478
H         -1.58999        2.01778        2.42850
H         -2.51688        0.52671        2.69593
H         -3.36090        2.07379        2.47880
H         -1.61583        3.13872        0.11429
H         -3.38717        3.20089        0.17486
H         -2.57320        2.42401       -1.19872
H         -5.41944        1.63697        0.88268
H         -6.43522       -2.10751       -0.97034
H         -4.03116       -2.63993       -1.27569
H         -1.41209       -2.71888       -1.34212
H          1.02281       -2.33171       -1.16600
