28
COMP52_100000.log	Energy: -1530275.7791209
C          1.06608       -0.13719       -0.01911
C         -0.32310        0.26851       -0.05745
C         -0.84947        1.51922       -0.23798
F         -0.08656        2.60173       -0.41186
C         -2.26153        1.59664       -0.24600
H         -2.80816        2.51679       -0.41031
C         -2.83338        0.36745       -0.06055
S         -1.62653       -0.86879        0.14083
C         -4.24587        0.02785       -0.00747
S         -5.40961        1.18030        0.57678
C         -6.71695        0.08714        0.31688
H         -7.73890        0.35880        0.53500
C         -6.25336       -1.09398       -0.17216
F         -7.04082       -2.12957       -0.46598
C         -4.84831       -1.14847       -0.36582
H         -4.33198       -2.00723       -0.77684
C          1.57278       -1.40976        0.08326
H          0.97223       -2.31072        0.14095
N          2.92999       -1.52042        0.10849
C          3.48484       -0.34360        0.02489
S          2.38390        0.99507       -0.09135
C          4.92199       -0.12391        0.02266
S          6.04062       -1.45078        0.13963
C          7.32940       -0.31093        0.06530
H          8.36337       -0.62292        0.10286
C          6.83291        0.95391       -0.03947
H          7.43061        1.85472       -0.10271
N          5.46844        1.05628       -0.06341
