48
COMP84_400000.log	Energy: -1336916.6489422
C          1.68963       -0.10032       -0.06981
C          3.15456       -0.15971       -0.06577
C          4.00210        0.66475        0.63337
O          3.66258        1.67643        1.46656
C          5.36965        0.32847        0.42384
S          6.87840        0.95008        0.99752
C          7.73765       -0.25820        0.07500
H          8.81877       -0.28767        0.10508
C          6.90878       -1.08548       -0.62533
O          7.23966       -2.12110       -1.43345
C          5.53761       -0.74604       -0.42053
S          4.03088       -1.37830       -0.98325
C          0.90837       -1.26044       -0.01899
C         -0.48231       -1.20600        0.00941
C         -1.13535        0.02720        0.00323
C         -2.54137        0.46951       -0.04221
C         -2.46452        1.98221       -0.17671
O         -3.35653        2.80692       -0.23756
N         -1.12854        2.31686       -0.16419
C         -0.64515        3.67131       -0.26440
C         -0.33316        1.18372       -0.08238
C          1.04854        1.15112       -0.11788
C         -3.71829       -0.21179        0.05059
C         -3.79595       -1.66796        0.48548
O         -2.90370       -2.43198        0.80506
N         -5.12788       -2.00287        0.52125
C         -5.61141       -3.30373        0.91007
C         -5.92265       -0.93477        0.12114
C         -7.29969       -0.93842       -0.01347
C         -7.90770        0.23134       -0.46930
H         -8.98706        0.26112       -0.58506
C         -7.14402        1.35059       -0.78315
C         -5.75664        1.33994       -0.63684
C         -5.12123        0.19065       -0.16532
H          2.71049        1.63147        1.63543
H          8.19934       -2.21289       -1.45737
H          1.39728       -2.22855        0.02565
H         -1.05369       -2.11926        0.06587
H         -1.51411        4.32980       -0.28425
H         -0.06292        3.80918       -1.18194
H         -0.01916        3.92145        0.59883
H          1.62173        2.06370       -0.25223
H         -4.74621       -3.90371        1.19413
H         -6.13343       -3.78785        0.07736
H         -6.29448       -3.22131        1.76200
H         -7.88374       -1.82256        0.22023
H         -7.62901        2.25137       -1.14496
H         -5.17813        2.21958       -0.87152
