58
COMP82_420003.log	Energy: -2198824.9111870
C          0.92043        0.19099       -0.28453
C          2.38283        0.16336       -0.37352
C          3.21129        1.14321       -0.86725
O          2.86680        2.33871       -1.38295
C          4.58882        0.76287       -0.84126
Cl         5.82409        1.79186       -1.45989
C          4.80370       -0.48587       -0.32780
S          3.30296       -1.22288        0.13206
C          6.06974       -1.18548       -0.14393
S          6.41303       -2.65159       -1.00781
C          7.96539       -2.79749       -0.26841
H          8.61342       -3.62886       -0.51018
C          8.21416       -1.76910        0.59246
O          9.31754       -1.55572        1.34154
C          7.12002       -0.84865        0.66481
Cl         7.14794        0.51704        1.71475
C          0.15344       -0.94960       -0.55704
C         -1.22954       -0.92557       -0.46856
C         -1.89054        0.25854       -0.12685
C         -3.30310        0.63879       -0.04171
C         -3.30537        2.12737        0.20906
O         -4.24522        2.86970        0.33693
N         -1.94800        2.51851        0.33213
C         -1.46641        3.82531        0.49978
O         -0.31280        4.13347        0.30404
O         -2.41413        4.65502        0.90536
C         -1.99460        6.01121        1.07640
C         -1.10979        1.40933        0.08459
C          0.27428        1.38975        0.05210
C         -4.45309       -0.09879       -0.07904
C         -4.44812       -1.59144        0.16239
O         -3.50883       -2.29872        0.42707
N         -5.79674       -2.01166        0.13659
C         -6.27166       -3.31241        0.35540
O         -7.44196       -3.57291        0.50961
O         -5.29117       -4.20481        0.35269
C         -5.70371       -5.55027        0.59906
C         -6.63917       -0.90278       -0.12120
C         -8.01445       -0.90453       -0.29357
C         -8.62717        0.30230       -0.62329
H         -9.70429        0.32473       -0.75837
C         -7.88162        1.46499       -0.79139
C         -6.50391        1.45497       -0.60898
C         -5.86234        0.26631       -0.24747
H          1.90329        2.41046       -1.42977
H          9.95395       -2.26172        1.17860
H          0.64756       -1.86973       -0.85294
H         -1.78945       -1.82635       -0.66333
H         -2.89216        6.54733        1.38001
H         -1.60267        6.41266        0.13939
H         -1.22460        6.07703        1.84803
H          0.83453        2.27431        0.32055
H         -4.78603       -6.13578        0.57302
H         -6.39945       -5.88532       -0.17335
H         -6.18405       -5.63104        1.57666
H         -8.58441       -1.81367       -0.17293
H         -8.37483        2.39295       -1.06166
H         -5.93658        2.36352       -0.73113
