29
COMP22_140000.log	Energy: -1374780.3021167
C          2.19740        0.73202       -0.43761
C          0.86338        0.13211       -0.39546
C          0.48004       -1.14866       -0.65026
F          1.28554       -2.15054       -1.02750
C         -0.91366       -1.39279       -0.54046
O         -1.47917       -2.60229       -0.76586
C         -1.62303       -0.27082       -0.19674
S         -0.53736        1.08536       -0.00042
C         -3.05140       -0.15609        0.00453
S         -4.13725       -1.51855       -0.16996
C         -5.51929       -0.56231        0.21925
H         -6.51107       -0.98782        0.24789
C         -5.15333        0.71762        0.46365
F         -5.97828        1.72506        0.79523
C         -3.75824        0.96817        0.34672
O         -3.19230        2.18213        0.55117
C          3.32794        0.06791        0.15066
N          3.31099       -1.10657        0.77991
S          4.83750       -1.39256        1.26016
N          5.57767       -0.05396        0.70668
C          4.63274        0.67915        0.11406
C          4.81850        1.95487       -0.49181
H          5.80486        2.40374       -0.51009
C          3.72352        2.56770       -1.02462
H          3.82468        3.54139       -1.49349
C          2.42945        1.96163       -1.00099
H          1.60238        2.49179       -1.46412
H         -0.77700       -3.23578       -0.96598
H         -3.88859        2.80999        0.78557
