35
COMP41_200001.log	Energy: -1889520.0428613
C         -2.67114        0.34269       -0.45408
C         -1.21690        0.28314       -0.33046
C         -0.34582        1.27170        0.00587
Cl        -0.91765        2.85821        0.42362
C          1.04688        0.86714        0.02804
C          2.20642        1.60538        0.32341
C          2.20311        3.06900        0.68662
C          3.40448        0.89736        0.26254
S          4.97532        1.60919        0.59787
C          5.76328        0.10086        0.29116
H          6.83771        0.01578        0.37553
C          4.90582       -0.88591       -0.04263
Cl         5.50308       -2.48113       -0.39681
C          3.51079       -0.47995       -0.07341
C          2.35404       -1.21611       -0.37030
C          2.36399       -2.67987       -0.73203
C          1.15468       -0.50828       -0.31100
S         -0.40500       -1.22421       -0.64913
C         -3.61934       -0.43950        0.14055
C         -3.66498       -1.52907        1.15677
O         -2.77717       -2.08071        1.75751
N         -5.03341       -1.80609        1.29046
H         -5.38157       -2.51249        1.92303
C         -5.88087       -1.02857        0.48859
O         -7.08364       -1.10514        0.45253
C         -4.94763       -0.14131       -0.25589
C         -5.03646        0.86148       -1.16666
H         -5.91776        1.29169       -1.62231
S         -3.46176        1.45355       -1.54856
H          1.71032        3.66981       -0.08142
H          3.22060        3.45168        0.79744
H          1.68093        3.24476        1.63124
H          2.92297       -2.85918       -1.65472
H          1.35038       -3.06095       -0.87970
H          2.82542       -3.27984        0.05610
