34
COMP57_410100.log	Energy: -1797702.6989488
C          1.84286       -0.07756       -0.03597
C          0.49345        0.42750       -0.11894
C          0.09028        1.72228       -0.27503
F          0.92724        2.76898       -0.38152
C         -1.31159        1.92542       -0.32042
O         -1.89975        3.13339       -0.46507
C         -2.00758        0.74910       -0.19933
S         -0.91340       -0.59831       -0.01909
C         -3.44807        0.62012       -0.21494
C         -4.13913       -0.53719       -0.17209
C         -5.58767       -0.62248       -0.11281
C         -6.46146        0.24238        0.50152
O         -6.16519        1.35869        1.20250
C         -7.81881       -0.18118        0.37153
F         -8.81557        0.52651        0.89932
C         -7.97536       -1.34116       -0.31292
H         -8.90097       -1.84901       -0.53905
S         -6.45042       -1.96403       -0.82365
C          2.26307       -1.37681        0.10920
F          1.42410       -2.40106        0.19689
N          3.58266       -1.62174        0.16591
C          4.23735       -0.49463        0.06437
S          3.26152        0.92759       -0.10671
C          5.68535       -0.40779        0.09145
S          6.67274       -1.82399        0.25917
C          8.06510       -0.81447        0.19458
H          9.07097       -1.19983        0.26073
C          7.66416        0.47982        0.05365
F          8.49184        1.50887       -0.02822
N          6.33563        0.72159       -0.00551
H         -1.21287        3.80874       -0.53983
H         -3.97647        1.56674       -0.31272
H         -3.59863       -1.48395       -0.17031
H         -5.21771        1.35172        1.40218
