33
COMP47_320001.log	Energy: -1956641.1326963
C         -3.47163        0.28147        0.25937
C         -2.07177        0.66177        0.12756
C         -1.50882        1.90336       -0.04422
Cl        -2.39225        3.37677       -0.20454
C         -0.08377        1.88884       -0.10462
C          0.68964        3.07071       -0.28837
N          1.33525        4.02266       -0.43812
C          0.44099        0.61260        0.02960
S         -0.82532       -0.54083        0.21434
C          1.80619        0.11610        0.02953
C          2.91467        0.86284       -0.13815
C          4.27920        0.36389       -0.12409
C          4.80864       -0.87689        0.19240
C          4.04243       -2.00107        0.61425
N          3.40558       -2.90837        0.95569
C          6.23471       -0.91118        0.06636
Cl         7.16785       -2.32399        0.39941
C          6.76859        0.27415       -0.33213
H          7.81164        0.50128       -0.49831
S          5.54756        1.45819       -0.56268
C         -4.09638       -0.87746       -0.12031
C         -3.75236       -2.13200       -0.84898
O         -2.70074       -2.51050       -1.30587
N         -4.95856       -2.83784       -0.90314
H         -5.03205       -3.74641       -1.33881
C         -6.04691       -2.20434       -0.28629
O         -7.16802       -2.63981       -0.21231
C         -5.47220       -0.92838        0.21710
C         -5.92140        0.17416        0.86712
H         -6.91865        0.39788        1.22061
S         -4.63806        1.30573        1.07194
H          1.89885       -0.95508        0.18072
H          2.82336        1.93131       -0.30682
