54
COMP61_100033.log	Energy: -1744562.7636698
C         -1.92918        1.01524        0.22439
C         -0.57912        0.49170        0.16128
C          0.52350        1.13696       -0.30053
F          0.45209        2.35764       -0.82912
C          1.74704        0.39240       -0.22898
C          3.05092        0.74686       -0.61806
C          3.47481        2.11750       -1.03566
O          4.31491        2.32258       -1.88159
O          2.89112        3.07995       -0.32045
C          3.22060        4.41833       -0.70693
C          4.03222       -0.24002       -0.56249
S          5.70958       -0.04186       -1.02344
C          6.06927       -1.65543       -0.48786
H          7.07544       -2.04644       -0.54311
C          4.98721       -2.31335       -0.02847
F          5.04697       -3.53938        0.48153
C          3.76418       -1.54761       -0.07656
C          2.46633       -1.89975        0.31438
C          2.10480       -3.31906        0.62609
O          2.51734       -4.27644        0.02330
O          1.20798       -3.38166        1.61953
C          0.68632       -4.68497        1.89685
C          1.47744       -0.91422        0.25588
S         -0.20474       -1.13383        0.68096
C         -3.10961        0.36524        0.03008
C         -3.65094       -0.95752       -0.28489
O         -3.13265       -2.04201       -0.36310
N         -5.06729       -0.67363       -0.46545
C         -6.11492       -1.55584       -0.77341
O         -7.25738       -1.17902       -0.88313
O         -5.68425       -2.79758       -0.92078
C         -6.70043       -3.75228       -1.23884
C         -5.33181        0.68737       -0.28358
H         -6.33988        1.05162       -0.41758
C         -4.18208        1.31638        0.02688
C         -3.63487        2.65078        0.26968
O         -4.15448        3.72555        0.40298
N         -2.21289        2.38745        0.39052
C         -1.34065        3.37350        0.91241
O         -1.36242        4.52629        0.58719
O         -0.54700        2.82678        1.83683
C          0.51324        3.66072        2.30914
H          2.59710        5.06195       -0.08786
H          2.99804        4.57392       -1.76424
H          4.28000        4.61289       -0.52688
H         -0.05319       -4.54002        2.68273
H          1.48680       -5.34680        2.23430
H          0.22188       -5.10488        1.00220
H         -6.18005       -4.70509       -1.31865
H         -7.18217       -3.49552       -2.18471
H         -7.45208       -3.78685       -0.44739
H          0.91314        3.15361        3.18603
H          0.13448        4.65020        2.56970
H          1.28190        3.73822        1.53669
