33
COMP27_410000.log	Energy: -1423333.8397692
C          3.17912        0.86615        0.18961
C          1.81536        0.34157        0.27609
C          1.36045       -0.81378        0.83614
F          2.11106       -1.72004        1.47505
C         -0.04431       -1.01748        0.76179
O         -0.65723       -2.10629        1.28039
C         -0.69250        0.01401        0.12914
S          0.46466        1.21756       -0.37899
C         -2.10265        0.20773       -0.14503
C         -3.08361       -0.67974        0.12534
C         -4.49340       -0.40605       -0.10449
C         -5.15441        0.79066        0.02976
O         -4.64033        1.97776        0.42520
C         -6.54804        0.67304       -0.25713
F         -7.35894        1.72752       -0.18443
C         -6.94244       -0.58075       -0.59050
H         -7.93791       -0.90778       -0.85111
S         -5.60686       -1.67227       -0.55722
C          4.27654        0.01948       -0.18830
N          4.20290       -1.27508       -0.49607
S          5.71472       -1.74617       -0.86314
N          6.51841       -0.34763       -0.65862
C          5.60980        0.55711       -0.28778
C          5.85741        1.93500       -0.02573
H          6.86473        2.32636       -0.10945
C          4.79302        2.71583        0.31481
H          4.94084        3.77159        0.51837
C          3.47031        2.18619        0.42468
H          2.67018        2.85824        0.72106
H          0.01852       -2.67422        1.67556
H         -2.35913        1.14116       -0.64498
H         -2.82568       -1.64681        0.54799
H         -3.77369        1.81160        0.82441
