45
COMP76_000010.log	Energy: -1197763.6149382
C          0.23292        1.61769        0.01597
C         -1.17122        1.18811       -0.12579
C         -1.68255        0.15128        0.66641
C         -3.01545       -0.19252        0.54936
C         -3.78922       -1.26453        1.28168
H         -3.36917       -2.26116        1.09858
H         -3.77873       -1.10735        2.36739
C         -5.17873       -1.12075        0.70389
C         -6.33155       -1.83474        0.99573
C         -7.51123       -1.51477        0.32389
H         -8.42185       -2.06441        0.54320
C         -7.53416       -0.49408       -0.62772
C         -6.37955        0.22535       -0.92334
C         -5.20334       -0.09303       -0.25149
C         -3.85707        0.48550       -0.34742
C         -3.35995        1.51719       -1.13463
C         -2.01844        1.86398       -1.01537
C          1.41666        0.90965        0.03263
C          1.57580       -0.55234       -0.18703
O          0.63535       -1.31005       -0.37224
C          2.97537       -1.03766       -0.17033
C          3.32424       -2.35283       -0.34688
C          2.45110       -3.54168       -0.60161
S          5.04337       -2.52517       -0.24602
C          5.31034       -0.83977        0.03290
C          6.69058       -0.29101        0.21635
C          4.11045       -0.17682        0.04660
C          3.96352        1.27475        0.25010
O          4.90670        2.03119        0.42774
C          2.56277        1.76103        0.21572
C          2.23937        3.07926        0.33583
H          2.92891        3.90041        0.47538
S          0.54651        3.31424        0.23708
H         -1.02887       -0.37413        1.35341
H         -6.31996       -2.63010        1.73612
H         -8.46175       -0.25970       -1.14149
H         -6.40021        1.01893       -1.66506
H         -3.99924        2.04691       -1.83480
H         -1.61436        2.65844       -1.63651
H          1.70030       -3.63838        0.18690
H          3.03724       -4.46337       -0.65233
H          1.90439       -3.41759       -1.54067
H          7.44620       -1.07803        0.14714
H          6.77881        0.20088        1.18902
H          6.89978        0.47052       -0.53997
