35
COMP42_430002.log	Energy: -1497486.6251492
C          1.55795       -0.85003        0.04864
C          0.30085       -0.13412        0.02017
C          0.02255        1.16673        0.40508
O          0.86025        2.10347        0.83175
C         -1.38505        1.44412        0.39358
C         -1.89055        2.71722        0.79106
N         -2.29697        3.75493        1.11021
C         -2.15724        0.37017       -0.00231
S         -1.16429       -0.98303       -0.39556
C         -3.60171        0.30253       -0.16651
S         -4.51124        1.67129       -0.69332
C         -5.99074        0.79406       -0.65248
H         -6.92040        1.28115       -0.91271
C         -5.80362       -0.49745       -0.25242
O         -6.72688       -1.46674       -0.09647
C         -4.43037       -0.79000        0.02634
C         -4.01072       -2.07292        0.48591
N         -3.68103       -3.12162        0.85462
C          2.85904       -0.43235       -0.08214
C          3.57575        0.82498       -0.34965
O          3.16853        1.96843       -0.46991
N          4.91280        0.45407       -0.42278
O          5.88626        1.33364       -0.76865
C          6.47597        1.92266        0.39644
C          5.17468       -0.92261       -0.22071
O          6.26331       -1.43095       -0.22739
C          3.81898       -1.48247       -0.00253
C          3.28228       -2.70930        0.19234
H          3.77744       -3.66711        0.27200
S          1.56180       -2.58841        0.30559
H          1.72006        2.08455        0.34206
H         -7.60461       -1.11726       -0.29196
H          7.22893        2.60877        0.00840
H          6.95023        1.15443        1.01392
H          5.72434        2.47601        0.96716
