40
COMP67_400000.log	Energy: -1192697.3275441
C          2.48640        0.60208        0.04180
C          1.17903       -0.00214       -0.02591
C          0.98104       -1.36025       -0.15378
H          1.80621       -2.06751       -0.21390
C         -0.38582       -1.71041       -0.19438
O         -0.86625       -2.97273       -0.30783
C         -1.24469       -0.63321       -0.10390
S         -0.34588        0.84170        0.04777
C         -2.68803       -0.70678       -0.13060
C         -3.53730        0.34255       -0.10715
C         -4.98241        0.23080       -0.05602
C         -5.74494       -0.74553        0.55009
O         -5.28025       -1.80898        1.24693
C         -7.14928       -0.53417        0.42655
H         -7.88516       -1.20959        0.84427
C         -7.43753        0.60405       -0.26055
H         -8.41421        1.00039       -0.50110
S         -6.01970        1.44226       -0.76324
C          3.69724       -0.06181       -0.00170
C          4.29613       -1.37639       -0.11722
O          3.83426       -2.50693       -0.22629
N          5.69004       -1.10648       -0.07898
C          6.68808       -2.14769       -0.17489
C          5.93664        0.24397        0.04454
H          6.95148        0.61671        0.08716
C          4.74931        0.90119        0.09509
C          4.15587        2.22321        0.20362
O          4.62731        3.33599        0.30471
N          2.74982        1.96065        0.16472
C          1.81385        3.06139        0.23496
H         -0.12636       -3.58790       -0.37549
H         -3.07616       -1.71912       -0.22602
H         -3.12955        1.35383       -0.11545
H         -4.33717       -1.67649        1.42226
H          6.15579       -3.09853       -0.23045
H          7.33704       -2.14902        0.70622
H          7.29747       -2.02510       -1.07570
H          2.41799        3.96784        0.30721
H          1.17560        2.99005        1.12050
H          1.19541        3.11797       -0.66556
