36
COMP74_100002.log	Energy: -1746690.6219865
C          0.80465       -1.52730       -0.15394
C          2.07687       -0.80892       -0.11583
C          2.97250       -0.79033        0.91107
F          2.79039       -1.43225        2.06293
C          4.12668       -0.00797        0.64367
S          5.56765        0.41324        1.50514
C          6.12101        1.35815        0.15150
H          7.06625        1.87940        0.18968
C          5.24076        1.33891       -0.88147
F          5.41920        1.97876       -2.03622
C          4.08282        0.55492       -0.61466
S          2.64563        0.13955       -1.47664
C         -0.48120       -1.04234       -0.11180
C         -0.85388        0.39149        0.05518
O         -0.02326        1.27568        0.17047
C         -2.30824        0.63416        0.07659
C         -2.87487        1.87282        0.19865
O         -2.22079        3.02104        0.33426
C         -2.96085        4.22859        0.36886
S         -4.63479        1.79896        0.17471
C         -4.57967        0.04750       -0.00240
O         -5.68275       -0.68720       -0.09793
C         -6.94069       -0.04420        0.00494
C         -3.29667       -0.42254       -0.03824
C         -2.92995       -1.84154       -0.17168
O         -3.73309       -2.75510       -0.25619
C         -1.46333       -2.08252       -0.19590
C         -0.91111       -3.32728       -0.29354
H         -1.44652       -4.26465       -0.35860
S          0.79829       -3.25809       -0.29617
H         -2.22300        5.02292        0.47349
H         -3.64357        4.24795        1.22732
H         -3.52421        4.37029       -0.56126
H         -7.68552       -0.83234       -0.09733
H         -7.07390        0.69122       -0.79808
H         -7.05451        0.44324        0.98079
