46
COMP61_400020.log	Energy: -1335652.3543287
C          2.47337        0.78672       -0.12704
C          1.05755        0.58463       -0.04284
C          0.38540       -0.59756       -0.33803
O          0.89885       -1.73170       -0.78131
C         -1.05250       -0.46902       -0.20779
C         -2.05308       -1.42681       -0.43665
O         -1.81682       -2.69401       -0.86600
C         -1.35909       -3.59130        0.14255
C         -3.37193       -1.03174       -0.24129
S         -4.75220       -2.07620       -0.47218
C         -5.82166       -0.78428        0.01125
H         -6.89032       -0.95487        0.03866
C         -5.17809        0.36781        0.31912
O         -5.73977        1.53645        0.72002
C         -3.74071        0.26733        0.18002
C         -2.73981        1.21888        0.41439
O         -2.98850        2.48489        0.85682
C         -3.40111        3.39125       -0.16057
C         -1.42356        0.82575        0.21215
S         -0.05328        1.87030        0.46269
C          3.48828       -0.15434       -0.00404
C          3.72832       -1.51733        0.35738
O          2.95647       -2.47266        0.55697
N          5.12348       -1.62097        0.43564
C          5.80582       -2.85577        0.75623
C          5.72570       -0.40052        0.17759
H          6.79946       -0.29261        0.24414
C          4.75273        0.50150       -0.10671
C          4.50896        1.91635       -0.34573
O          5.24646        2.85674       -0.54077
N          3.08016        2.02103       -0.33042
C          2.45955        3.27441       -0.71447
H          1.71850       -2.03279       -0.27468
H         -1.25984       -4.56236       -0.34335
H         -2.09133       -3.65850        0.95625
H         -0.38702       -3.27877        0.53289
H         -6.69625        1.42157        0.77243
H         -3.50255        4.36378        0.32307
H         -4.36537        3.09190       -0.58253
H         -2.64670        3.45233       -0.95456
H          5.04546       -3.63290        0.84568
H          6.34363       -2.76891        1.70522
H          6.50782       -3.12665       -0.03755
H          3.26511        3.91845       -1.07140
H          1.97340        3.76265        0.13432
H          1.73000        3.11833       -1.51217
