44
COMP72_340002.log	Energy: -1880844.8459006
C         -0.24792       -1.43976        0.56330
C          0.99506       -0.68141        0.65360
C          1.26253        0.40673        1.45114
C          0.35751        1.01905        2.36321
N         -0.29573        1.57034        3.14776
C          2.59737        0.88797        1.30398
O          3.11187        1.94233        1.97270
C          3.34555        0.16021        0.41063
S          2.38224       -1.12670       -0.26543
C          4.72450        0.38879        0.03237
S          5.67556        1.70312        0.68076
C          7.04543        1.26393       -0.23718
H          7.96550        1.82676       -0.16937
C          6.80760        0.16021       -1.01398
C          7.73585       -0.46319       -1.89677
N          8.42566       -1.03155       -2.63698
C          5.47490       -0.34040       -0.85739
O          4.97351       -1.41600       -1.50232
C         -1.52691       -1.00876        0.28894
C         -1.91775        0.37878       -0.10065
O         -1.10584        1.28006       -0.22020
C         -3.35958        0.55133       -0.34291
C         -3.94035        1.74813       -0.66265
O         -3.31013        2.90673       -0.81019
C         -4.06900        4.06573       -1.10840
S         -5.68360        1.60128       -0.86726
C         -5.60213       -0.12145       -0.51025
O         -6.68243       -0.89400       -0.50980
C         -7.94663       -0.29682       -0.73939
C         -4.32299       -0.52974       -0.25407
C         -3.93560       -1.90867        0.07524
O         -4.70982       -2.84831        0.13856
C         -2.47986       -2.07866        0.33242
C         -1.91553       -3.28611        0.62410
H         -2.42999       -4.23373        0.70608
S         -0.22759       -3.15171        0.86552
H          2.42260        2.36620        2.50388
H          5.63995       -1.79285       -2.09387
H         -3.34994        4.88193       -1.16188
H         -4.80026        4.27170       -0.31756
H         -4.57910        3.96208       -2.07387
H         -8.67216       -1.10716       -0.68312
H         -7.98926        0.16359       -1.73411
H         -8.17229        0.45212        0.02920
