46
COMP97_230001.log	Energy: -2027932.3349379
C         -1.93549        0.10479        0.16907
C         -0.52156       -0.23034        0.44771
C         -0.06018       -1.08053        1.42010
C         -0.93584       -1.83398        2.25636
N         -1.68213       -2.43262        2.91036
C          1.36661       -1.14915        1.44805
Cl         2.21150       -2.15069        2.56921
C          1.97906       -0.35485        0.51238
S          0.77538        0.50018       -0.41140
C          3.40366       -0.22128        0.28402
C          3.96272        0.51619       -0.69063
C          5.38627        0.67048       -0.94803
C          6.50424        0.44061       -0.18307
Cl         6.50293       -0.11848        1.44956
C          7.73314        0.74733       -0.85489
C          9.02908        0.59397       -0.27460
N         10.08671        0.47377        0.18305
C          7.52825        1.21261       -2.12532
H          8.28260        1.51219       -2.83878
S          5.86593        1.27741       -2.51071
C         -2.40362        1.36457        0.60898
C         -3.72180        1.71782        0.46844
C         -4.17613        3.05243        0.94982
O         -3.43512        3.87390        1.44508
N         -5.53169        3.30525        0.79013
H         -5.85512        4.20840        1.11804
C         -6.50553        2.47524        0.24524
O         -7.66145        2.83223        0.17328
C         -6.01880        1.15152       -0.23109
C         -6.90883        0.26049       -0.78262
H         -7.95387        0.54066       -0.86046
C         -6.45994       -0.99445       -1.23410
C         -5.13190       -1.33784       -1.13241
C         -4.69296       -2.67080       -1.62093
O         -5.43996       -3.49418       -2.10363
N         -3.33308       -2.91600       -1.50005
H         -3.00874       -3.80497       -1.86392
C         -2.33995       -2.08178       -1.00748
O         -1.17665       -2.41653       -1.07306
C         -2.81444       -0.78130       -0.43917
C         -4.18864       -0.44006       -0.56645
C         -4.64663        0.81673       -0.10833
H          4.02424       -0.79195        0.96545
H          3.31738        1.05181       -1.38598
H         -1.71995        2.06267        1.08171
H         -7.15062       -1.71099       -1.66567
