43
COMP41_300031.log	Energy: -1665027.1587415
C         -2.95508        0.58328       -0.29179
C         -1.51231        0.38540       -0.22005
C         -0.53721        1.34420       -0.08188
C         -0.84252        2.70112        0.24001
N         -1.10638        3.78168        0.56818
C          0.80214        0.78978       -0.09494
C          2.03642        1.44356        0.02353
C          2.13877        2.93040       -0.12054
O          1.56630        3.55198       -0.98015
O          2.97423        3.46354        0.77457
C          3.15243        4.88223        0.67067
C          3.18474        0.65930        0.10698
S          4.82264        1.26164        0.26716
C          5.44953       -0.33697        0.14538
H          6.51893       -0.50173        0.15910
C          4.50004       -1.30383        0.02702
C          4.88414       -2.65892       -0.21716
N          5.26576       -3.72242       -0.47524
C          3.15220       -0.75650        0.02644
C          1.91806       -1.40813       -0.09488
C          1.81523       -2.89360        0.04428
O          2.45329       -3.53297        0.84218
O          0.89448       -3.40734       -0.77691
C          0.66699       -4.81584       -0.63563
C          0.76769       -0.62231       -0.18469
S         -0.86284       -1.22017       -0.35473
C         -3.97838       -0.22872        0.12702
C         -4.15088       -1.53407        0.83384
O         -3.33283       -2.32618        1.23339
N         -5.53707       -1.68077        0.94610
H         -5.95880       -2.48642        1.38627
C         -6.29337       -0.63991        0.38878
O         -7.49610       -0.57225        0.37024
C         -5.26630        0.29648       -0.13894
C         -5.25340        1.49650       -0.77554
H         -6.08771        2.11013       -1.08693
S         -3.63451        2.00375       -1.05249
H          3.84171        5.14658        1.47075
H          2.19256        5.38615        0.79949
H          3.57181        5.14049       -0.30402
H         -0.08170       -5.06426       -1.38569
H          0.29822       -5.03764        0.36793
H          1.59566       -5.36137       -0.81317
