44
COMP77_010002.log	Energy: -1843808.4553956
C         -0.73379       -1.63573        0.24832
C          0.57623       -1.02293        0.39905
C          0.97434       -0.08468        1.31314
F          0.16282        0.41587        2.23617
C          2.32999        0.30250        1.22860
H          2.76972        1.04958        1.87700
C          2.99529       -0.36836        0.23285
S          1.92894       -1.45790       -0.59932
C          4.38538       -0.28368       -0.18163
C          5.34143        0.38974        0.48062
C          6.72446        0.49954        0.04509
C          7.29797        0.15991       -1.15413
H          6.76398       -0.23989       -2.00682
C          8.69154        0.41768       -1.16120
F          9.44604        0.16229       -2.23271
C          9.18397        0.94703       -0.00794
H         10.20379        1.22527        0.21107
S          7.91564        1.14049        1.14009
C         -1.97766       -1.05401        0.13649
C         -2.25111        0.40785        0.04380
O         -1.37045        1.24951        0.06579
C         -3.68180        0.74594       -0.09925
C         -4.15967        2.02444       -0.18206
O         -3.43321        3.13712       -0.14783
C         -4.09395        4.38506       -0.25148
S         -5.91459        2.06510       -0.34058
C         -5.98045        0.30694       -0.29318
O         -7.12775       -0.35992       -0.36979
C         -8.32854        0.36912       -0.55007
C         -4.73761       -0.24702       -0.16369
C         -4.46760       -1.69138       -0.10747
O         -5.32534       -2.55580       -0.17507
C         -3.02704       -2.02823        0.03506
C         -2.57055       -3.31274        0.05841
H         -3.17021       -4.20934       -0.01760
S         -0.86806       -3.37138        0.22471
H          4.64719       -0.81914       -1.09211
H          5.09152        0.88924        1.41450
H         -3.31203        5.14043       -0.18525
H         -4.80727        4.52355        0.57042
H         -4.61140        4.47749       -1.21424
H         -9.12329       -0.37491       -0.58204
H         -8.31095        0.92860       -1.49328
H         -8.50287        1.05544        0.28786
