36
COMP57_430000.log	Energy: -1664417.5392663
C         -2.43484       -0.15265       -0.31032
C         -1.05200        0.26931       -0.21076
C         -0.53081        1.52683        0.02661
C         -1.26885        2.72800        0.22251
N         -1.76853        3.76156        0.39623
C          0.90165        1.55724        0.03322
O          1.62994        2.67290        0.23646
C          1.47186        0.32839       -0.19883
S          0.22515       -0.87196       -0.40550
C          2.86768       -0.05958       -0.26629
C          3.92202        0.77606       -0.15546
C          5.30383        0.31794       -0.16040
C          5.81831       -0.83125        0.39194
O          5.14164       -1.77555        1.07651
C          7.23514       -0.95622        0.21269
C          8.00225       -2.05883        0.69469
N          8.63594       -2.94858        1.08200
C          7.76863        0.10970       -0.46249
H          8.80661        0.25703       -0.72504
S          6.57926        1.26486       -0.87893
C         -2.92436       -1.21806       -1.02680
H         -2.32141       -1.86572       -1.65332
N         -4.26418       -1.43450       -0.94209
C         -4.82156       -0.54390       -0.16751
S         -3.74450        0.63038        0.52063
C         -6.24567       -0.49869        0.12180
S         -7.34763       -1.65190       -0.56667
C         -8.62467       -0.86192        0.27222
H         -9.64719       -1.20281        0.19332
C         -8.13808        0.18836        0.99331
H         -8.73362        0.84953        1.61003
N         -6.78829        0.39068        0.90519
H          1.04378        3.42757        0.39484
H          3.05270       -1.11600       -0.45757
H          3.74986        1.84232       -0.04399
H          4.27223       -1.42119        1.31540
