42
COMP84_300001.log	Energy: -1308942.2045502
C          1.28134        0.05129        0.02778
C          2.75034        0.05064        0.02420
C          3.61326        1.07665        0.35404
C          3.21041        2.36911        0.80143
N          2.91545        3.43332        1.15580
C          4.98155        0.67980        0.22773
S          6.50756        1.45324        0.48869
C          7.34456        0.01477        0.03103
H          8.42563       -0.00786        0.03146
C          6.50801       -1.01586       -0.30725
C          6.95572       -2.30655       -0.72083
N          7.30075       -3.36036       -1.05825
C          5.13650       -0.62358       -0.18953
S          3.61030       -1.39083       -0.44963
C          0.57331       -1.09220        0.41214
C         -0.81830       -1.12103        0.42284
C         -1.54441        0.01117        0.05056
C         -2.98138        0.35657       -0.07460
C         -2.98395        1.81349       -0.52439
O         -3.90545        2.57877       -0.72041
N         -1.66768        2.17623       -0.66970
H         -1.40371        3.11880       -0.91091
C         -0.80326        1.15226       -0.32776
C          0.57595        1.19843       -0.35851
C         -4.12233       -0.36777        0.11991
C         -4.11480       -1.81631        0.61012
O         -3.18931       -2.53596        0.92848
N         -5.42307       -2.21542        0.65157
H         -5.68329       -3.14024        0.95565
C         -6.29239       -1.20789        0.25903
C         -7.67055       -1.28663        0.18381
C         -8.36019       -0.15329       -0.24301
H         -9.44335       -0.18230       -0.31360
C         -7.66983        1.00711       -0.57733
C         -6.27946        1.07010       -0.49439
C         -5.55662       -0.04911       -0.07084
H          1.11247       -1.97597        0.73898
H         -1.33247       -2.01595        0.73251
H          1.08941        2.09525       -0.68597
H         -8.19222       -2.20140        0.44684
H         -8.21620        1.88482       -0.90670
H         -5.76282        1.98042       -0.75086
