40
COMP72_220002.log	Energy: -2824307.0389223
C          0.75041       -1.70066       -0.33328
C         -0.56037       -1.15393        0.02236
C         -1.20884       -1.25664        1.22106
Cl        -0.55787       -2.07767        2.58888
C         -2.46874       -0.58499        1.23495
Cl        -3.49181       -0.52221        2.61843
C         -2.76740        0.01178        0.04077
S         -1.49920       -0.24703       -1.10889
C         -3.96625        0.76824       -0.30994
S         -3.92363        2.49268       -0.49736
C         -5.59882        2.56000       -0.86877
H         -6.08739        3.49927       -1.08439
C         -6.16790        1.32413       -0.84349
Cl        -7.83757        1.02995       -1.16868
C         -5.23088        0.29111       -0.52585
Cl        -5.65088       -1.37633       -0.44594
C          1.97419       -1.07844       -0.32194
C          2.21012        0.34084        0.06852
O          1.30318        1.08644        0.39640
C          3.62592        0.74661        0.01753
C          4.07623        1.99749        0.33879
O          3.32687        3.01663        0.74296
C          3.95297        4.25624        1.02347
S          5.82343        2.13621        0.16200
C          5.92518        0.45586       -0.35652
O          7.08153       -0.11830       -0.66854
C          8.26866        0.65199       -0.59757
C          4.69818       -0.14566       -0.38548
C          4.46429       -1.54495       -0.77711
O          5.33992       -2.32008       -1.12165
C          3.03646       -1.95396       -0.71634
C          2.60074       -3.21116       -1.02103
H          3.21329       -4.04356       -1.33993
S          0.90560       -3.35455       -0.83377
H          3.15492        4.92537        1.34231
H          4.43641        4.66361        0.12729
H          4.68795        4.15273        1.83105
H          9.07472       -0.02271       -0.88270
H          8.44013        1.01788        0.42210
H          8.23197        1.49575       -1.29727
