40
COMP77_430001.log	Energy: -1785724.7208514
C          1.95664        1.20204        0.35738
C          0.66381        0.58494        0.62946
C          0.37476       -0.41106        1.53392
C          1.31312       -1.05111        2.39195
N          2.00220       -1.60946        3.13964
C         -1.01537       -0.74472        1.57226
O         -1.55851       -1.68442        2.36878
C         -1.77804        0.01153        0.71398
S         -0.76965        1.12115       -0.16738
C         -3.21166       -0.09425        0.54894
C         -3.98111        0.70061       -0.22061
C         -5.41033        0.51086       -0.41193
C         -6.10508       -0.67326       -0.49407
O         -5.59888       -1.91962       -0.43156
C         -7.51139       -0.48432       -0.70119
C         -8.44814       -1.55387       -0.82403
N         -9.21935       -2.41274       -0.92768
C         -7.85156        0.84002       -0.78323
H         -8.84117        1.24764       -0.93334
S         -6.49232        1.86290       -0.61690
C          3.15883        0.62469        0.01214
C          3.39014       -0.81872       -0.28324
O          2.51099       -1.65957       -0.25519
C          4.78985       -1.14926       -0.63727
C          5.23022       -2.41428       -0.90394
H          4.64314       -3.32237       -0.89274
S          6.90732       -2.42894       -1.27276
C          7.03821       -0.72752       -1.07590
H          7.97779       -0.21057       -1.21494
C          5.83732       -0.17364       -0.73628
C          5.60588        1.26618       -0.49865
O          6.47471        2.11253       -0.59703
C          4.20498        1.59912       -0.12872
C          3.78062        2.87561        0.09902
H          4.38248        3.77284        0.04690
S          2.11945        2.92672        0.50111
H         -0.86468       -2.14133        2.86519
H         -3.66990       -0.87577        1.15257
H         -3.52711        1.53848       -0.75001
H         -4.63410       -1.87125       -0.50248
