54
COMP93_000003.log	Energy: -1074588.3401614
C          0.62584        1.19086        0.15404
C          1.55170        2.36068        0.20805
C          1.59936        3.19839       -0.90723
C          2.37117        4.35767       -0.91856
C          2.44406        5.23518       -2.14248
C          3.08071        4.67599        0.23928
H          3.68176        5.58172        0.26911
C          3.02149        3.85541        1.35855
C          2.26470        2.68399        1.37037
C          2.25121        1.79994        2.59062
C         -0.75818        1.50113        0.16577
C         -1.72048        0.52592        0.13034
C         -3.15406        0.91521        0.14638
O         -3.54321        2.06250        0.17034
N         -4.06566       -0.14447        0.13308
C         -5.47198        0.21311        0.20261
O         -6.06768        0.32375        1.23285
O         -5.93963        0.38470       -1.02041
C         -7.32319        0.74916       -1.08911
C         -3.77347       -1.51006        0.06534
O         -4.66599       -2.32889        0.02190
C         -2.32990       -1.86042        0.05089
C         -1.96005       -3.18514        0.00275
H         -2.73030       -3.94808       -0.02031
C         -0.59801       -3.52788       -0.01423
C          0.36955       -2.54780        0.01332
C          1.79361       -2.95783       -0.00583
O          2.16866       -4.11094       -0.03361
N          2.70973       -1.90972        0.01033
C          4.11443       -2.27902        0.02333
O          4.74972       -2.39159        1.02987
O          4.53175       -2.46054       -1.21612
C          5.90556       -2.84598       -1.33678
C          2.44299       -0.53337        0.00744
O          3.37094        0.24174       -0.06259
C          1.00649       -0.14428        0.09051
C          0.02094       -1.17386        0.06223
C         -1.35150       -0.83835        0.08304
H          1.02517        2.93120       -1.79194
H          1.67014        4.97247       -2.86959
H          3.41546        5.13220       -2.63996
H          2.31929        6.29175       -1.88338
H          3.57633        4.13063        2.25200
H          2.54215        2.36122        3.48296
H          2.96254        0.97466        2.47098
H          1.26375        1.36481        2.77517
H         -1.06516        2.54096        0.21222
H         -7.53961        0.85835       -2.15032
H         -7.48808        1.69061       -0.56111
H         -7.93949       -0.03534       -0.64522
H         -0.28430       -4.56562       -0.04898
H          6.08063       -2.95940       -2.40517
H          6.07607       -3.78958       -0.81433
H          6.55067       -2.07098       -0.91774
