50
COMP85_000011.log	Energy: -873198.2428572
C          1.01790        0.29373       -0.10108
C          2.49837        0.36031       -0.16507
C          3.26251       -0.69972        0.32249
C          4.64877       -0.60548        0.24338
N          5.61243       -1.50410        0.65801
H          5.42894       -2.39706        1.08302
C          6.86753       -0.99479        0.38007
C          8.12362       -1.55296        0.61341
C          9.23486       -0.81649        0.22749
H         10.22591       -1.22744        0.39531
C          9.10428        0.44385       -0.37513
C          7.85076        0.99265       -0.60379
C          6.71654        0.27167       -0.22593
C          5.29235        0.52170       -0.31169
C          4.51627        1.57502       -0.79609
C          3.13551        1.48949       -0.71949
C          0.34070       -0.89694       -0.38671
C         -1.04578       -0.99274       -0.32101
C         -1.80461        0.12305        0.03952
C         -3.24663        0.41973        0.15818
C         -3.30844        1.90005        0.51972
O         -4.26364        2.61402        0.75282
N         -2.00778        2.32925        0.59717
H         -1.77857        3.28198        0.83140
C         -1.10370        1.31941        0.29878
C          0.27152        1.42826        0.24382
C         -4.35674       -0.36195        0.02828
C         -4.29111       -1.88100       -0.06922
O         -3.33614       -2.63247       -0.03649
N         -5.58938       -2.31498       -0.15602
H         -5.81555       -3.29453       -0.22255
C         -6.49567       -1.26368       -0.15230
C         -7.87076       -1.34855       -0.27343
C         -8.59375       -0.15690       -0.27754
H         -9.67515       -0.18968       -0.37105
C         -7.93973        1.06644       -0.17004
C         -6.55251        1.13444       -0.04501
C         -5.80039       -0.04246       -0.02399
H          2.78325       -1.56236        0.77592
H          8.23090       -2.52776        1.07967
H          9.99527        0.99209       -0.66460
H          7.75098        1.96773       -1.07201
H          4.98666        2.44900       -1.23725
H          2.52625        2.29312       -1.12182
H          0.91023       -1.76886       -0.69301
H         -1.53321       -1.92943       -0.54026
H          0.76453        2.36540        0.48367
H         -8.36476       -2.31034       -0.36927
H         -8.51280        1.98801       -0.17909
H         -6.06146        2.08982        0.05140
