38
COMP77_030001.log	Energy: -1691354.4984768
C          1.78592        1.32922        0.23393
C          0.44452        0.79468        0.44720
C          0.03574       -0.10937        1.40433
C          0.92774       -0.67581        2.36588
N          1.64482       -1.12536        3.15745
C         -1.35818       -0.38558        1.36310
H         -1.84960       -1.04895        2.06399
C         -2.00941        0.30300        0.37306
S         -0.89748        1.30346       -0.51027
C         -3.41684        0.28436        0.00387
C         -4.27806       -0.68183        0.36251
C         -5.70013       -0.65924        0.04938
C         -6.49195        0.39769       -0.31459
H         -6.14350        1.42067       -0.38481
C         -7.84375        0.01379       -0.56212
C         -8.87206        0.92707       -0.95442
N         -9.69980        1.67297       -1.27368
C         -8.06281       -1.32743       -0.37170
H         -8.99506       -1.86217       -0.48630
S         -6.62917       -2.13053        0.10140
C          2.96577        0.66414       -0.00988
C          3.11636       -0.80250       -0.23426
O          2.18186       -1.58120       -0.24321
C          4.51237       -1.23920       -0.47181
C          4.88279       -2.54025       -0.65700
H          4.23451       -3.40572       -0.65252
S          6.57746       -2.68037       -0.90031
C          6.80908       -0.98388       -0.76078
H          7.78804       -0.53380       -0.85188
C          5.62787       -0.33900       -0.53179
C          5.47917        1.12244       -0.36774
O          6.40916        1.90443       -0.43822
C          4.08322        1.56139       -0.10840
C          3.73212        2.87010        0.04944
H          4.39590        3.72323        0.01108
S          2.05487        3.04376        0.33510
H         -3.76918        1.11068       -0.61006
H         -3.91215       -1.54695        0.91163
