28
COMP31_200010.log	Energy: -1711742.6471823
C          2.67123       -0.21460        0.06685
C          1.20078       -0.16108        0.03662
C          0.41687        0.88200       -0.32860
Cl         1.03291        2.39726       -0.89323
C         -0.99923        0.62614       -0.22996
C         -2.06217        1.47654       -0.52856
H         -1.87944        2.48369       -0.88832
C         -3.34605        0.98491       -0.34801
S         -4.84307        1.84493       -0.64511
C         -5.77634        0.46286       -0.14804
H         -6.85670        0.50397       -0.15604
C         -5.00592       -0.58216        0.21978
Cl        -5.63778       -2.10090        0.76727
C         -3.58727       -0.33017        0.12150
C         -2.52418       -1.18053        0.41781
H         -2.70629       -2.18785        0.77752
C         -1.24035       -0.68834        0.23739
S          0.25201       -1.54828        0.53686
C          3.39958        0.58095        0.95233
F          2.76704        1.39664        1.79124
C          4.78762        0.53207        0.97816
F          5.44668        1.30866        1.83823
C          5.48419       -0.31448        0.13209
H          6.56645       -0.35223        0.15708
C          4.77020       -1.11175       -0.74686
F          5.41136       -1.93401       -1.57763
C          3.38274       -1.06440       -0.78053
F          2.72884       -1.84019       -1.64390
