29
COMP44_000003.log	Energy: -1309973.0793523
C         -0.32718        1.22143       -0.00588
C         -1.58347        0.49528       -0.01055
C         -2.83061        1.05209        0.15242
H         -3.00075        2.10891        0.32262
C         -3.85301        0.07740        0.08103
S         -5.58303        0.09487        0.20296
C         -5.63575       -1.62724       -0.03689
H         -6.59335       -2.13008       -0.04407
C         -4.40904       -2.19401       -0.19992
H         -4.24897       -3.25257       -0.35982
C         -3.38108       -1.20764       -0.13248
S         -1.65780       -1.24463       -0.24662
C          0.98215        0.80812       -0.02571
C          1.71589       -0.47260       -0.07976
O          1.30030       -1.59762       -0.18484
N          3.09621       -0.10199       -0.03872
C          4.18185       -1.01057       -0.11922
O          5.19360       -0.78435       -0.72446
O          3.91256       -2.10768        0.57812
C          4.90792       -3.13007        0.49391
C          3.29624        1.31176        0.00194
O          4.35309        1.87720        0.06177
C          1.92494        1.86650        0.00745
C          1.37621        3.10396        0.04931
H          1.86400        4.06810        0.08108
S         -0.34604        2.97572        0.03932
H          4.50650       -3.96882        1.06017
H          5.84674       -2.78126        0.92983
H          5.07560       -3.41254       -0.54776
