29
COMP23_000100.log	Energy: -782239.9897791
C         -0.23567       -0.37330       -0.08317
C          1.23689       -0.24365        0.05989
C          1.90996        0.64319       -0.78501
C          3.28797        0.81915       -0.71444
C          4.00846        1.76442       -1.64237
C          3.98910        0.08447        0.24369
H          5.06651        0.20420        0.33014
C          3.32658       -0.78675        1.09686
C          1.94411       -0.97178        1.02813
C          1.25935       -1.91568        1.98414
C         -1.11750        0.74438        0.11939
N         -0.73799        1.97470        0.45858
S         -2.09603        2.86458        0.56908
N         -3.21442        1.73835        0.19977
C         -2.54686        0.60921       -0.02855
C         -3.12675       -0.64297       -0.38472
H         -4.19647       -0.76311       -0.49847
C         -2.26979       -1.67507       -0.57320
F         -2.71155       -2.88551       -0.91154
C         -0.84744       -1.53920       -0.43292
F         -0.13919       -2.64504       -0.67189
H          1.33530        1.20962       -1.51309
H          3.30604        2.35634       -2.23608
H          4.65524        1.21637       -2.33721
H          4.64445        2.45837       -1.08234
H          3.89413       -1.33654        1.84348
H          1.92164       -2.17110        2.81594
H          0.97421       -2.84788        1.48610
H          0.34851       -1.47464        2.40241
