36
COMP57_440100.log	Energy: -1767572.1174317
C          1.84200       -0.11659       -0.27950
C          0.48931        0.38034       -0.38917
C          0.08758        1.65803       -0.68441
O          0.85491        2.75101       -0.96334
C         -1.32363        1.83511       -0.65295
O         -1.91537        3.02142       -0.91325
C         -2.00889        0.68706       -0.34932
S         -0.90018       -0.63375       -0.08971
C         -3.44800        0.56185       -0.27854
C         -4.13576       -0.57933       -0.06985
C         -5.57873       -0.64961        0.07091
C         -6.42615        0.29176        0.59394
O         -6.11647        1.51188        1.11291
C         -7.79836       -0.10907        0.61628
O         -8.77650        0.68888        1.10344
C         -7.98231       -1.35845        0.11056
H         -8.91569       -1.89166        0.00846
S         -6.48536       -2.06708       -0.39025
C          2.31024       -1.40082       -0.40646
F          1.52495       -2.43513       -0.67009
N          3.62849       -1.62263       -0.24946
C          4.23722       -0.49711        0.00667
S          3.20956        0.89938        0.09695
C          5.66841       -0.38148        0.21213
S          6.70902       -1.76703        0.15061
C          8.04408       -0.73140        0.48082
H          9.05764       -1.09198        0.56688
C          7.58903        0.54652        0.60502
F          8.36286        1.58906        0.85963
N          6.26211        0.75671        0.45711
H          1.65643        2.49178       -1.43774
H         -1.21701        3.65655       -1.12879
H         -3.98141        1.49380       -0.45663
H         -3.59577       -1.52253        0.01318
H         -5.17185        1.53525        1.32386
H         -8.35418        1.49410        1.43495
