30
COMP42_120000.log	Energy: -1941530.8230561
C          2.18075        0.92679        0.04827
C          0.73293        0.95047       -0.03222
C         -0.07784        2.04989        0.08104
F          0.38444        3.28213        0.27774
C         -1.46470        1.78029       -0.01416
Cl        -2.65394        3.01687        0.13178
C         -1.71615        0.44757       -0.20104
S         -0.24655       -0.46858       -0.27516
C         -3.00873       -0.21508       -0.34881
S         -4.00371        0.04944       -1.74791
C         -5.21942       -1.02526       -1.17591
H         -6.12548       -1.20844       -1.73432
C         -4.86861       -1.55848        0.02195
F         -5.61125       -2.41840        0.70845
C         -3.60610       -1.10444        0.50360
Cl        -2.96171       -1.62301        2.01385
C          3.06276       -0.11590       -0.06303
C          3.01111       -1.57707       -0.30529
O          2.05849       -2.30235       -0.49060
N          4.34616       -1.99853       -0.28434
C          4.75325       -3.37365       -0.47699
C          5.26231       -0.96272       -0.05418
O          6.46031       -1.10094        0.00503
C          4.42299        0.25463        0.08478
C          4.61314        1.57674        0.30882
H          5.53792        2.11781        0.45460
S          3.09436        2.39855        0.34324
H          3.86442       -3.94763       -0.74113
H          5.19299       -3.77440        0.44011
H          5.49213       -3.43369       -1.27924
