38
COMP62_230002.log	Energy: -1836546.7007038
C          2.11167       -0.57927        0.12402
C          0.70142       -0.78691       -0.15394
C          0.05625       -1.87688       -0.68257
Cl         0.82514       -3.31296       -1.22273
C         -1.35206       -1.67812       -0.81066
C         -2.24587       -2.67279       -1.30925
N         -2.97701       -3.47498       -1.71537
C         -1.75228       -0.42754       -0.37834
S         -0.40894        0.50172        0.15723
C         -3.10195        0.12595       -0.36218
S         -4.12975        0.03298       -1.74537
C         -5.39765        0.86908       -0.94738
H         -6.33716        1.06092       -1.44553
C         -5.05082        1.21269        0.32261
Cl        -6.08618        2.05674        1.41222
C         -3.72882        0.79163        0.67355
C         -3.14291        0.99900        1.95821
N         -2.65992        1.16366        2.99881
C          2.90688        0.49460       -0.15321
C          2.91100        1.76191       -0.87907
O          2.06062        2.41246       -1.44524
N          4.27497        2.15797       -0.73293
O          4.80028        3.25750       -1.34147
C          4.46582        4.44541       -0.61523
C          5.04191        1.24626       -0.04868
H          6.10060        1.42096        0.08296
C          4.23367        0.22313        0.33562
C          4.24351       -1.07854        0.99295
O          5.06830       -1.70450        1.61508
N          2.89669       -1.51887        0.77322
O          2.39148       -2.63262        1.36781
C          2.07260       -2.37918        2.74150
H          4.94308        5.25431       -1.16928
H          4.86668        4.39835        0.40335
H          3.38268        4.58880       -0.59716
H          1.66755       -3.32127        3.11147
H          1.31646       -1.58976        2.82128
H          2.97407       -2.11165        3.29877
