50
COMP92_430000.log	Energy: -1546289.4448666
C          0.79811       -0.41457        0.27090
C         -0.64948       -0.66631        0.39997
C         -1.26299       -1.43800        1.34859
O         -0.68203       -2.09296        2.37269
C         -2.68420       -1.48595        1.19503
C         -3.52447       -2.19420        2.10277
N         -4.19945       -2.77783        2.84312
C         -3.12511       -0.74540        0.11406
S         -1.80268       -0.01561       -0.71267
C         -4.48794       -0.56593       -0.36427
S         -5.62302       -1.86476       -0.34323
C         -6.85870       -0.89051       -1.04284
H         -7.84164       -1.30319       -1.22341
C         -6.42286        0.37929       -1.28741
O         -7.10968        1.41084       -1.81872
C         -5.05734        0.57510       -0.90110
C         -4.40370        1.83571       -1.03682
N         -3.87986        2.86310       -1.15714
C          1.62022       -1.53436       -0.01594
C          2.97274       -1.40009       -0.21253
C          3.79344       -2.60767       -0.50973
O          3.30304       -3.71820       -0.54862
N          5.15413       -2.39360       -0.73861
C          6.00392       -3.54606       -1.03531
C          5.79193       -1.15079       -0.71109
O          6.98478       -1.06621       -0.92327
C          4.94968        0.03788       -0.41221
C          5.51774        1.29064       -0.38267
H          6.58014        1.39220       -0.57579
C          4.72131        2.41947       -0.11131
C          3.37402        2.28276        0.13703
C          2.56124        3.50017        0.40315
O          3.04376        4.61462        0.37541
N          1.21507        3.28929        0.69435
C          0.38543        4.44878        1.02511
C          0.60537        2.04041        0.83354
O         -0.50481        1.96104        1.31584
C          1.38187        0.84579        0.37628
C          2.76690        1.00383        0.12130
C          3.56781       -0.12270       -0.16760
H          0.25824       -1.87353        2.40810
H         -8.01590        1.13756       -2.00465
H          1.17133       -2.51900       -0.10522
H          5.37607       -4.43381       -1.03316
H          6.78620       -3.63027       -0.27854
H          6.47513       -3.41321       -2.01087
H          5.15375        3.41397       -0.09814
H          0.89072        5.33758        0.65463
H          0.24898        4.52286        2.10679
H         -0.59107        4.33106        0.55477
