58
COMP81_000013.log	Energy: -1575506.3698922
C         -1.54912       -0.27201        0.04436
C         -3.00462       -0.46730        0.04634
C         -3.96262        0.46873        0.27349
H         -3.74093        1.50416        0.50597
C         -5.30283       -0.04751        0.21136
C         -6.50592        0.63635        0.39789
H         -6.50701        1.69976        0.61691
C         -7.68665       -0.08324        0.29139
S         -9.31365        0.53762        0.47752
C         -9.98330       -1.04363        0.17647
H        -11.05738       -1.17336        0.18963
C         -9.04806       -1.99085       -0.05269
H         -9.27997       -3.02959       -0.25731
C         -7.70240       -1.47365        0.00467
C         -6.49861       -2.15717       -0.18001
H         -6.49625       -3.22078       -0.39828
C         -5.31860       -1.43748       -0.07360
S         -3.69454       -2.05644       -0.26592
C         -0.67033       -1.32879        0.30757
C          0.70405       -1.14413        0.29977
C          1.23798        0.11855        0.03053
C          2.59810        0.65904        0.04193
C          2.44481        2.14234       -0.19702
O          3.31079        2.96830       -0.33437
N          1.05765        2.39092       -0.34324
C          0.45006        3.63171       -0.57487
O         -0.73692        3.76342       -0.76742
O          1.32371        4.62838       -0.54434
C          0.76570        5.92080       -0.78727
C          0.33857        1.18114       -0.18882
C         -1.03189        1.00635       -0.20886
C          3.82452        0.06692        0.15553
C          4.03260       -1.40561       -0.10225
O          3.20974       -2.23265       -0.40487
N          5.42615       -1.63949       -0.01751
C          6.08583       -2.85645       -0.23366
O          7.28836       -2.97524       -0.18638
O          5.24007       -3.84565       -0.48852
C          5.85681       -5.11231       -0.72464
C          6.09179       -0.43921        0.33624
C          7.43989       -0.25882        0.60683
C          7.85547        1.00690        1.01424
H          8.90787        1.17070        1.22509
C          6.94597        2.04948        1.16403
C          5.59965        1.85843        0.88010
C          5.15661        0.60945        0.43542
H         -1.06303       -2.31521        0.53422
H          1.35610       -1.98074        0.49325
H          1.61152        6.60559       -0.75096
H          0.03242        6.17265       -0.01787
H          0.28560        5.95343       -1.76764
H         -1.68246        1.83788       -0.43341
H          5.03369       -5.79271       -0.93724
H          6.40936       -5.43972        0.15899
H          6.53933       -5.05494       -1.57536
H          8.13802       -1.07629        0.50775
H          7.28610        3.02369        1.50009
H          4.90441        2.67601        0.98611
