41
COMP21_400420.log	Energy: -1536159.8395032
C          2.57725        0.32284        0.15169
C          1.11660        0.21283        0.14052
C          0.20799        1.16029       -0.25810
O          0.47836        2.38607       -0.75046
C         -1.16600        0.71900       -0.15764
C         -2.35291        1.38858       -0.48839
O         -2.39586        2.65191       -1.00084
C         -2.24251        3.67959       -0.03067
C         -3.54933        0.70549       -0.30996
S         -5.12685        1.37046       -0.66401
C         -5.88271       -0.11227       -0.13043
H         -6.96078       -0.20605       -0.15870
C         -4.99858       -1.05227        0.28066
O         -5.28703       -2.29714        0.74024
C         -3.62021       -0.61674        0.18827
C         -2.43558       -1.28313        0.52049
O         -2.40204       -2.54795        1.03224
C         -2.51926       -3.57356        0.05275
C         -1.23783       -0.60019        0.34085
S          0.32986       -1.27460        0.67786
C          3.42952       -0.78201       -0.22491
N          3.01245       -1.98440       -0.60494
S          4.33980       -2.87108       -0.92460
N          5.49934       -1.76862       -0.60147
C          4.86868       -0.66091       -0.22564
C          5.49803        0.56226        0.14197
H          6.57914        0.64976        0.13063
C          4.68036        1.58705        0.49344
O          5.09963        2.82551        0.87864
C          3.24244        1.46816        0.51267
O          2.55317        2.57357        0.91752
H          1.29229        2.71233       -0.32815
H         -2.35697        4.62333       -0.56619
H         -1.24979        3.63727        0.42722
H         -3.01641        3.60117        0.74313
H         -6.24497       -2.41128        0.74322
H         -2.39451       -4.51804        0.58452
H         -1.73538       -3.47549       -0.70828
H         -3.50591       -3.54897       -0.42060
H          6.06329        2.86277        0.89887
H          3.19723        3.26210        1.14722
