26
COMP32_210000.log	Energy: -1788415.3612048
C          2.50400       -0.24836        0.02101
C          1.12926        0.26166       -0.08421
C          0.72255        1.53414       -0.36790
Cl         1.76223        2.86122       -0.71629
C         -0.69182        1.66029       -0.37300
F         -1.29550        2.81820       -0.63492
C         -1.36948        0.50586       -0.09875
S         -0.23168       -0.77972        0.17874
C         -2.80410        0.31182       -0.03647
S         -3.95027        1.58862       -0.33778
C         -5.29185        0.54428       -0.06861
H         -6.30369        0.91422       -0.14970
C         -4.89417       -0.71976        0.23654
Cl        -5.94425       -2.04596        0.57211
C         -3.47758       -0.84237        0.25263
F         -2.86884       -1.99430        0.52886
C          3.37654        0.23724        0.99671
F          2.96389        1.16341        1.85763
C          4.67780       -0.23951        1.09149
F          5.47876        0.24999        2.03754
C          5.14028       -1.21683        0.22585
H          6.15388       -1.59040        0.30592
C          4.28101       -1.70917       -0.74227
F          4.69691       -2.64714       -1.59294
C          2.98082       -1.23243       -0.84639
F          2.18652       -1.72422       -1.79620
