33
COMP21_400410.log	Energy: -1392483.0706170
C          2.18513        0.34058        0.12270
C          0.72839        0.20019        0.10977
C         -0.19878        1.10341       -0.33954
O          0.01909        2.30681       -0.90654
C         -1.56059        0.64620       -0.21045
C         -2.71598        1.33302       -0.58086
H         -2.64419        2.31983       -1.02542
C         -3.93124        0.70453       -0.35851
S         -5.52652        1.33244       -0.72518
C         -6.27346       -0.12395       -0.10258
H         -7.35119       -0.22170       -0.11589
C         -5.37310       -1.02556        0.35276
O         -5.61035       -2.24690        0.89466
C         -4.00327       -0.58421        0.22322
C         -2.84741       -1.26921        0.59296
H         -2.91340       -2.25677        1.03700
C         -1.63099       -0.63921        0.36986
S         -0.04334       -1.27121        0.72341
C          3.06490       -0.76930       -0.16270
N          2.67726       -2.00705       -0.44802
S          4.02672       -2.88570       -0.69034
N          5.15842       -1.73521       -0.44867
C          4.50081       -0.61528       -0.16620
C          5.09939        0.64742        0.10703
H          6.17824        0.75925        0.09428
C          4.25583        1.67664        0.37515
O          4.64436        2.95036        0.66610
C          2.82072        1.52621        0.39752
O          2.10441        2.64161        0.71797
H          0.81224        2.70017       -0.50062
H         -6.56101       -2.40801        0.91267
H          5.60679        3.01185        0.68568
H          2.73084        3.35871        0.90453
