39
COMP47_320003.log	Energy: -2099584.3523882
C         -2.68945       -1.39289        0.51195
C         -1.26049       -1.49020        0.24617
C         -0.53087       -2.54440       -0.24359
Cl        -1.19708       -4.06204       -0.72046
C          0.86572       -2.27393       -0.35803
C          1.79612       -3.23238       -0.85194
N          2.56687       -4.00160       -1.25154
C          1.19506       -0.99210        0.05660
S         -0.21553       -0.14855        0.57389
C          2.46283       -0.28559        0.12046
C          3.65309       -0.77217       -0.28050
C          4.92336       -0.07086       -0.20809
C          5.27668        1.15874        0.32507
C          4.37512        2.05118        0.97252
N          3.62883        2.76778        1.49690
C          6.67104        1.44326        0.16488
Cl         7.39744        2.90172        0.73306
C          7.35321        0.45330       -0.47069
H          8.40693        0.42877       -0.70778
S          6.31337       -0.84672       -0.88841
C         -3.54170       -0.34274        0.29623
C         -3.47234        0.99801       -0.33507
O         -2.54600        1.54452       -0.87241
N         -4.79652        1.51285       -0.21762
C         -5.22935        2.76113       -0.74017
O         -6.29336        2.92329       -1.27049
O         -4.30039        3.68501       -0.53469
C         -4.58476        4.96332       -1.11057
C         -5.70348        0.60205        0.40895
O         -6.86229        0.80524        0.64089
C         -4.86623       -0.57737        0.72744
C         -5.05511       -1.79823        1.29153
H         -5.96318       -2.23442        1.68457
S         -3.57578       -2.68082        1.29465
H          2.40174        0.71718        0.53215
H          3.71128       -1.76983       -0.70489
H         -3.70858        5.57354       -0.89844
H         -5.47834        5.39386       -0.65368
H         -4.73735        4.86740       -2.18770
