37
COMP47_010003.log	Energy: -1531591.0264115
C         -1.98925       -1.65902       -0.03911
C         -0.54709       -1.56687       -0.04657
C          0.35091       -2.61031       -0.02552
F         -0.04321       -3.88700        0.00088
C          1.71113       -2.25875       -0.04149
H          2.51084       -2.98776       -0.04548
C          1.86939       -0.89335       -0.06989
S          0.34277       -0.06985       -0.08466
C          3.08685       -0.10095       -0.08662
C          4.32383       -0.60092        0.07747
C          5.54415        0.18662        0.02632
C          5.73333        1.48362       -0.38039
H          4.95749        2.13473       -0.76288
C          7.08914        1.87715       -0.26345
F          7.49640        3.10038       -0.60719
C          7.92711        0.91532        0.21279
H          8.99115        0.98773        0.38061
S          7.04618       -0.52637        0.53896
C         -2.95514       -0.68097       -0.03932
C         -3.00033        0.79281       -0.05672
O         -2.10120        1.59274       -0.12390
N         -4.39156        1.11349       -0.02937
C         -4.92287        2.42690       -0.08096
O         -5.90581        2.72233       -0.70336
O         -4.18937        3.24559        0.66424
C         -4.58395        4.61814        0.61338
C         -5.23229       -0.04283       -0.02154
O         -6.43143       -0.04437        0.02467
C         -4.28165       -1.17577       -0.02776
C         -4.37118       -2.52737       -0.01541
H         -5.25331       -3.15254       -0.00651
S         -2.79098       -3.22279       -0.02115
H          2.95893        0.96911       -0.23548
H          4.44841       -1.66485        0.26930
H         -3.85259        5.15000        1.21982
H         -5.58863        4.73962        1.02449
H         -4.56774        4.98210       -0.41642
