44
COMP97_000001.log	Energy: -1335433.9960497
C          1.03155       -0.22049        0.40847
C         -0.43174       -0.21226        0.60689
C         -1.11088       -0.79497        1.64320
H         -0.61099       -1.24836        2.49193
C         -2.51976       -0.70230        1.51007
H         -3.21939       -1.05887        2.25682
C         -2.91335       -0.08353        0.34905
S         -1.52992        0.41366       -0.57448
C         -4.25306        0.17333       -0.15805
C         -5.35690       -0.46132        0.27193
C         -6.70798       -0.15318       -0.17233
C         -7.18605        0.96619       -0.80805
H         -6.56494        1.82380       -1.04018
C         -8.57658        0.89797       -1.09602
H         -9.13036        1.68770       -1.58988
C         -9.14679       -0.26607       -0.66935
H        -10.17999       -0.57295       -0.75481
S         -7.99313       -1.29709        0.08470
C          1.63299       -1.50156        0.30453
C          2.97406       -1.65310        0.07005
C          3.54903       -3.02184       -0.03634
O          2.90240       -4.03858        0.09946
N          4.91078       -3.06860       -0.30735
H          5.31442       -3.99516       -0.38452
C          5.79073       -2.00802       -0.48880
O          6.96410       -2.20408       -0.72456
C          5.18636       -0.65345       -0.36983
C          5.98205        0.45739       -0.53027
H          7.03746        0.32259       -0.74085
C          5.42073        1.74024       -0.41713
C          4.08022        1.89542       -0.14444
C          3.53221        3.26979       -0.02134
O          4.18879        4.27903       -0.17353
N          2.18783        3.32748        0.30223
H          1.80693        4.25465        0.45262
C          1.29927        2.28225        0.54234
O          0.18248        2.52987        0.94105
C          1.83735        0.90902        0.29793
C          3.23023        0.76988        0.02318
C          3.80310       -0.51748       -0.09498
H         -4.34349        0.92926       -0.93547
H         -5.25517       -1.26484        0.99909
H          1.01175       -2.38648        0.39474
H          6.02920        2.62974       -0.54052
