34
COMP37_430000.log	Energy: -1345781.2115125
C         -3.36237        0.29226       -0.10051
C         -1.95914       -0.11194        0.05683
C         -1.48890       -1.27545        0.62678
C         -2.28494       -2.28414        1.24163
N         -2.84576       -3.14856        1.77479
C         -0.06326       -1.38731        0.59444
O          0.62617       -2.43100        1.09813
C          0.54721       -0.30841       -0.00207
S         -0.65123        0.84066       -0.52064
C          1.95521       -0.03306       -0.22131
C          2.97222       -0.87034        0.07169
C          4.37250       -0.51828       -0.11080
C          4.97185        0.70475        0.07736
O          4.38033        1.84257        0.49379
C          6.38161        0.68546       -0.18150
C          7.22769        1.82817       -0.05861
N          7.92492        2.74888        0.03797
C          6.82478       -0.55729       -0.55014
H          7.83879       -0.83471       -0.80098
S          5.55971       -1.70652       -0.57901
C         -3.82226        1.53847        0.33291
F         -2.97878        2.39935        0.90229
C         -5.15523        1.89979        0.19162
F         -5.54907        3.09553        0.62596
C         -6.06738        1.03217       -0.38547
H         -7.10739        1.31485       -0.49373
C         -5.62382       -0.20422       -0.82349
F         -6.47287       -1.05650       -1.39286
C         -4.29097       -0.57075       -0.68989
F         -3.90374       -1.76035       -1.14402
H          0.01646       -3.07167        1.49244
H          2.17791        0.91975       -0.70006
H          2.75415       -1.85470        0.47511
H          3.50972        1.62383        0.85791
