33
COMP27_310000.log	Energy: -1444688.4252394
C          3.29745       -0.77935       -0.47251
C          1.93496       -0.24066       -0.43624
C          1.51032        1.04006       -0.64290
F          2.31164        2.04896       -0.94926
C          0.10137        1.22728       -0.55010
C         -0.50763        2.49765       -0.75272
N         -1.01475        3.52796       -0.91611
C         -0.56691        0.04651       -0.26642
S          0.56516       -1.25123       -0.11066
C         -1.97454       -0.25370       -0.08431
C         -2.97983        0.64220       -0.13187
C         -4.38792        0.33934        0.04893
C         -5.05686       -0.85020        0.29336
C         -4.45438       -2.13211        0.42852
N         -3.95695       -3.17447        0.53652
C         -6.46715       -0.65762        0.40012
F         -7.28452       -1.67688        0.63334
C         -6.87127        0.62852        0.24361
H         -7.87899        1.01390        0.28334
S         -5.51681        1.64897       -0.04261
C          4.36370       -0.12289        0.22882
N          4.25783        0.98171        0.96649
S          5.74561        1.29017        1.54372
N          6.57613        0.05018        0.89948
C          5.69712       -0.66522        0.19414
C          5.97214       -1.86526       -0.52199
H          6.97964       -2.26479       -0.53607
C          4.93417       -2.47542       -1.16195
H          5.10392       -3.39457       -1.71326
C          3.61107       -1.93561       -1.14009
H          2.83203       -2.45774       -1.68843
H         -2.19467       -1.30010        0.10487
H         -2.76015        1.68928       -0.31773
