35
COMP41_100013.log	Energy: -1530861.3648957
C         -1.19031       -1.40862       -0.00592
C          0.15515       -0.86922       -0.01721
C          1.31252       -1.58397        0.03673
F          1.34667       -2.91896        0.10474
C          2.52312       -0.82672        0.01938
C          3.83944       -1.28815        0.06662
H          4.05339       -2.34988        0.12540
C          4.84195       -0.33282        0.03715
S          6.57183       -0.61639        0.08427
C          6.89303        1.09749        0.00458
H          7.90618        1.47296        0.00547
C          5.75946        1.82251       -0.05368
F          5.71740        3.15472       -0.12108
C          4.54516        1.05166       -0.03820
C          3.22985        1.50860       -0.08525
H          3.01525        2.57031       -0.14392
C          2.22390        0.55380       -0.05479
S          0.50141        0.85982       -0.09990
C         -2.41331       -0.78220       -0.02560
C         -2.92745        0.60383       -0.08080
O         -2.33073        1.64527       -0.17385
N         -4.34793        0.46503       -0.05374
C         -5.27074        1.53902       -0.13772
O         -6.29927        1.48247       -0.75383
O         -4.83422        2.57367        0.57001
C         -5.64817        3.74552        0.48425
C         -4.77727       -0.89740       -0.01427
O         -5.91303       -1.28067        0.03802
C         -3.51603       -1.66912        0.00124
C         -3.17588       -2.98039        0.04288
H         -3.81828       -3.84979        0.06817
S         -1.46026       -3.14373        0.04911
H         -5.11406        4.50793        1.04903
H         -6.63094        3.55679        0.92208
H         -5.76866        4.05040       -0.55753
