56
COMP87_300000.log	Energy: -1455388.1312008
C          0.02030        0.49385        0.17701
C          1.47981        0.63600        0.24955
C          2.19643        1.70864        0.70387
H          1.74443        2.60675        1.10709
C          3.60562        1.51222        0.63726
C          4.52614        2.51039        1.07426
N          5.26716        3.32893        1.43144
C          3.96841        0.27453        0.12607
S          2.54592       -0.62622       -0.27588
C          5.25921       -0.34450       -0.11618
C          6.45810        0.20563        0.15942
C          7.75122       -0.41048       -0.08296
C          8.12058       -1.61839       -0.65695
C          7.20409       -2.58196       -1.17207
N          6.46500       -3.37182       -1.59237
C          9.53435       -1.82263       -0.69392
H          9.99409       -2.71091       -1.10847
C         10.22198       -0.78036       -0.15471
H         11.29274       -0.67297       -0.05386
S          9.16854        0.45832        0.40329
C         -0.59859       -0.74738        0.34769
C         -1.98398       -0.88449        0.30220
C         -2.78709        0.23506        0.09155
C         -4.23398        0.46943       -0.07998
C         -4.34667        1.94774       -0.41460
O         -5.33249        2.62513       -0.63525
N         -3.07073        2.46466       -0.37787
C         -2.76678        3.85141       -0.62930
C         -2.13920        1.47342       -0.10699
C         -0.76779        1.62857       -0.06685
C         -5.31501       -0.34989        0.05517
C         -5.22875       -1.73649        0.67960
O         -4.26367       -2.32828        1.12686
N         -6.50687       -2.23700        0.71628
C         -6.84201       -3.52759        1.26389
C         -7.40966       -1.34545        0.14757
C         -8.76614       -1.54973       -0.03097
C         -9.49413       -0.54087       -0.66212
H        -10.56110       -0.67117       -0.81592
C         -8.86419        0.61885       -1.10054
C         -7.49605        0.81181       -0.90843
C         -6.74437       -0.17076       -0.26255
H          5.21300       -1.33562       -0.55735
H          6.50312        1.19402        0.60662
H          0.00469       -1.62716        0.55075
H         -2.43430       -1.85229        0.45577
H         -3.71152        4.36610       -0.80632
H         -2.12478        3.95375       -1.51096
H         -2.26517        4.29826        0.23545
H         -0.30815        2.59346       -0.25306
H         -5.92581       -3.96467        1.66188
H         -7.25160       -4.18412        0.48849
H         -7.57631       -3.42312        2.06950
H         -9.24468       -2.46486        0.30174
H         -9.44072        1.39209       -1.59782
H         -7.02279        1.72122       -1.24326
