50
COMP77_140003.log	Energy: -2080396.9237432
C          0.32984       -1.48488       -0.31087
C         -0.92961       -0.77498       -0.31373
C         -1.27992        0.43033       -0.90130
O         -0.49893        1.30105       -1.53812
C         -2.68388        0.66116       -0.82803
F         -3.20894        1.77524       -1.34023
C         -3.41785       -0.31298       -0.21204
S         -2.35149       -1.57500        0.32706
C         -4.83734       -0.39825        0.06955
C         -5.74595        0.53077       -0.28738
C         -7.16668        0.44777       -0.01185
C         -7.90235       -0.50203        0.64012
F         -7.40104       -1.62499        1.19036
C         -9.30022       -0.25006        0.72472
O        -10.17559       -1.08202        1.33390
C         -9.63224        0.92441        0.11854
H        -10.61559        1.36154        0.03166
S         -8.24364        1.70660       -0.54546
C          1.65383       -1.07115       -0.20629
C          2.12965        0.28567        0.05491
O          1.38903        1.24311        0.27115
C          3.60508        0.45924        0.07701
C          4.23925        1.67550        0.16620
C          3.66662        3.05248        0.05835
O          2.88875        3.40388       -0.78895
O          4.20322        3.85327        0.98608
C          3.77543        5.21789        0.93177
S          5.94473        1.48609        0.26380
C          5.83370       -0.22518        0.10043
C          7.08880       -1.02152       -0.03703
O          7.26492       -1.89646       -0.84192
O          8.01545       -0.57126        0.82110
C          9.28773       -1.21931        0.73366
C          4.52574       -0.63658        0.03184
C          4.04296       -2.04358       -0.02140
O          4.76642       -3.00699        0.12965
C          2.58036       -2.17557       -0.22400
C          1.97215       -3.38496       -0.34329
H          2.45656       -4.35168       -0.35217
S          0.27133       -3.22447       -0.47026
H          0.30356        1.44562       -0.98731
H         -5.16250       -1.28642        0.60231
H         -5.41927        1.41676       -0.82217
H         -9.68457       -1.83867        1.68008
H          4.30595        5.72044        1.73909
H          2.69555        5.28059        1.08165
H          4.03080        5.65936       -0.03417
H          9.90879       -0.74388        1.49137
H          9.71838       -1.08217       -0.26104
H          9.18045       -2.28721        0.93493
