38
COMP61_200021.log	Energy: -1768725.2619707
C         -2.93667       -0.69684       -0.19456
C         -1.50562       -0.47344       -0.16989
C         -0.82142        0.67317       -0.44600
Cl        -1.58110        2.09377       -1.05393
C          0.61105        0.54418       -0.28934
C          1.63826        1.48786       -0.42763
O          1.42357        2.79171       -0.75126
C          1.10368        3.62501        0.36390
C          2.94449        1.05207       -0.23463
S          4.34342        2.08735       -0.37725
C          5.38460        0.76409        0.04345
H          6.45385        0.91111        0.10867
C          4.72257       -0.39279        0.26746
Cl         5.55258       -1.84533        0.72520
C          3.28768       -0.27902        0.10829
C          2.25988       -1.21968        0.25460
O          2.47749       -2.51783        0.60852
C          2.71380       -3.39219       -0.49238
C          0.95474       -0.78344        0.06162
S         -0.44392       -1.80541        0.26187
C         -3.97277        0.06889        0.25545
C         -4.28232        1.29492        0.99554
O         -3.60437        2.20105        1.43005
N         -5.69466        1.21199        1.13601
H         -6.22283        1.92641        1.61206
C         -6.21154        0.05507        0.59378
H         -7.26851       -0.16477        0.65968
C         -5.19578       -0.65790        0.04540
C         -4.87981       -1.93993       -0.58780
O         -5.56023       -2.86117       -0.98099
N         -3.46304       -1.89458       -0.66668
H         -2.94031       -2.58506       -1.18522
H          0.96813        4.62779       -0.04156
H          1.92243        3.62578        1.09297
H          0.17750        3.29777        0.84769
H          2.84036       -4.38716       -0.06484
H          3.62370       -3.10755       -1.03147
H          1.86190       -3.39092       -1.18298
