35
COMP27_440000.log	Energy: -1393211.6958072
C          3.13252        0.84751        0.02200
C          1.79678        0.25357        0.06249
C          1.35827       -1.00903        0.39916
O          2.03029       -2.10838        0.79112
C         -0.06298       -1.15425        0.35431
O         -0.64567       -2.33294        0.66403
C         -0.73047       -0.01998       -0.01929
S          0.41439        1.25569       -0.33921
C         -2.14974        0.22094       -0.18102
C         -3.11838       -0.71033       -0.04070
C         -4.53731       -0.41340       -0.13674
C         -5.18906        0.73797        0.21931
O         -4.65938        1.87439        0.75493
C         -6.60515        0.68815        0.03161
O         -7.41180        1.73128        0.33773
C         -7.02084       -0.50726       -0.46719
H         -8.03266       -0.80148       -0.70295
S         -5.69285       -1.59249       -0.70018
C          4.34384        0.06953       -0.05627
N          4.43429       -1.26122       -0.05983
S          6.01574       -1.65079       -0.16942
N          6.64976       -0.16124       -0.22265
C          5.63715        0.70490       -0.15205
C          5.75569        2.12148       -0.16504
H          6.73234        2.58341       -0.24340
C          4.59933        2.83691       -0.07447
H          4.63561        3.92181       -0.07302
C          3.32088        2.21309        0.02217
H          2.45628        2.86455        0.10246
H          2.97345       -2.03366        0.51951
H          0.07291       -2.95069        0.87356
H         -2.42627        1.23280       -0.47481
H         -2.83866       -1.73912        0.16810
H         -3.79508        1.66357        1.13759
H         -6.85350        2.42378        0.71895
