34
COMP55_000110.log	Energy: -1161696.3671191
C          0.56004        0.28582        0.15347
C         -0.87221       -0.03142        0.16517
C         -1.80223        0.94603       -0.19569
C         -3.14996        0.60457       -0.17512
N         -4.24978        1.37906       -0.48521
H         -4.21840        2.34239       -0.77320
C         -5.40021        0.62649       -0.33572
C         -6.73128        0.98904       -0.53848
C         -7.70047        0.02148       -0.31490
H         -8.74568        0.27392       -0.46630
C         -7.35967       -1.27516        0.10007
C         -6.03343       -1.62796        0.30076
C         -5.03868       -0.67282        0.08234
C         -3.59484       -0.68620        0.18553
C         -2.65319       -1.65152        0.54195
C         -1.30860       -1.32196        0.53451
C          1.19211        1.49226        0.31600
F          0.55117        2.63815        0.52545
N          2.53782        1.52878        0.27076
C          2.99794        0.32321        0.06373
S          1.79480       -0.91137       -0.09186
C          4.41328        0.01671       -0.03586
S          5.61542        1.25998        0.11261
C          6.82935        0.06089       -0.11961
H          7.88465        0.28630       -0.12330
C          6.22604       -1.14821       -0.28517
F          6.87896       -2.28239       -0.48577
N          4.87523       -1.18800       -0.24069
H         -1.48004        1.93799       -0.48981
H         -7.00083        1.99067       -0.85976
H         -8.14376       -2.00739        0.26449
H         -5.77148       -2.63215        0.62168
H         -2.96751       -2.65042        0.82938
H         -0.57847       -2.06719        0.83586
