48
COMP82_440001.log	Energy: -1430520.2170761
C         -0.42733        0.45267        0.11786
C         -1.88162        0.60486        0.17711
C         -2.58384        1.69985        0.60013
O         -2.10817        2.88797        1.07427
C         -3.99453        1.52841        0.55944
O         -4.85790        2.49602        0.95217
C         -4.38104        0.29659        0.09892
S         -2.97534       -0.67087       -0.28417
C         -5.72972       -0.19971       -0.06765
S         -7.13914        0.76013        0.32824
C         -8.21503       -0.51348       -0.13842
H         -9.28548       -0.38043       -0.06435
C         -7.53040       -1.60486       -0.56978
O         -7.98940       -2.80748       -1.02133
C         -6.11487       -1.42991       -0.53135
O         -5.24975       -2.39736       -0.92039
C          0.19527       -0.75868        0.44655
C          1.57792       -0.90258        0.41971
C          2.38874        0.18041        0.07020
C          3.83610        0.38026       -0.13032
C          3.95968        1.79260       -0.68764
O          4.93889        2.42250       -1.03236
N          2.68614        2.31105       -0.69645
H          2.49510        3.23104       -1.06083
C          1.74137        1.37959       -0.29291
C          0.36998        1.54378       -0.27247
C          4.91321       -0.41062        0.14163
C          4.81514       -1.67780        0.98227
O          3.85015       -2.20157        1.50306
N          6.09749       -2.14705        1.11567
H          6.30269       -2.98370        1.63826
C          7.01478       -1.36913        0.42204
C          8.37310       -1.59452        0.29346
C          9.10503       -0.70350       -0.48988
H         10.17361       -0.85340       -0.61091
C          8.47569        0.36470       -1.12208
C          7.10580        0.58086       -0.97878
C          6.34819       -0.28341       -0.18503
H         -1.18687        2.77381        1.34529
H         -4.33470        3.23495        1.29419
H         -8.95282       -2.81741       -1.00621
H         -5.76850       -3.16380       -1.20251
H         -0.41544       -1.60180        0.75393
H          2.02514       -1.84496        0.69437
H         -0.08373        2.46773       -0.61942
H          8.84757       -2.44140        0.77924
H          9.05615        1.04508       -1.73662
H          6.63324        1.41952       -1.46536
