31
COMP47_020001.log	Energy: -1840922.3991746
C          3.19832        0.43424       -0.03712
C          1.77860        0.74417       -0.08132
C          1.12961        1.96022       -0.19561
Cl         1.90431        3.50570       -0.34132
C         -0.28023        1.88669       -0.20407
H         -0.91266        2.75836       -0.31516
C         -0.73330        0.59812       -0.08470
S          0.58071       -0.52108        0.02232
C         -2.09744        0.09632       -0.04241
C         -3.18220        0.86864        0.13830
C         -4.55219        0.38045        0.13485
C         -5.04839       -0.83291       -0.26922
H         -4.44910       -1.63103       -0.68927
C         -6.45557       -0.92048       -0.09843
Cl        -7.36115       -2.33778       -0.52705
C         -7.02550        0.20531        0.41742
H         -8.06972        0.38268        0.62977
S         -5.83279        1.40691        0.71135
C          3.83557       -0.78462        0.04011
C          3.47575       -2.22736        0.09942
O          2.39864       -2.77736        0.09811
N          4.70456       -2.89442        0.16361
H          4.76604       -3.90121        0.21559
C          5.83013       -2.06233        0.15612
O          6.97933       -2.42462        0.20610
C          5.25223       -0.69688        0.07434
C          5.73237        0.56770        0.02658
H          6.75829        0.90935        0.03672
S          4.42976        1.69187       -0.06439
H         -2.21967       -0.97857       -0.15746
H         -3.05212        1.93542        0.30946
