29
COMP22_210400.log	Energy: -1951564.0631458
C          2.22026        0.44912       -0.23242
C          0.85747       -0.08214       -0.35905
C          0.47092       -1.30503       -0.82789
Cl         1.52812       -2.50747       -1.46366
C         -0.93521       -1.49056       -0.76587
F         -1.51983       -2.61271       -1.18562
C         -1.63007       -0.42996       -0.25717
S         -0.51560        0.83827        0.16328
C         -3.06342       -0.31232       -0.08015
S         -4.17981       -1.57187       -0.53223
C         -5.54033       -0.65226       -0.01537
H         -6.54095       -1.05013       -0.10152
C         -5.16947        0.55830        0.47990
Cl        -6.24670        1.75734        1.09658
C         -3.75979        0.74329        0.43942
F         -3.17967        1.86061        0.87608
C          3.16551       -0.15785        0.66145
N          2.92870       -1.20036        1.44921
S          4.31518       -1.49789        2.25558
N          5.26082       -0.31522        1.64292
C          4.50771        0.35376        0.77655
C          4.91691        1.48460        0.00939
H          5.92692        1.87004        0.10413
C          3.99869        2.04456       -0.81947
O          4.21824        3.12375       -1.61907
C          2.64754        1.53470       -0.94989
O          1.82280        2.15880       -1.80830
H          5.12821        3.43116       -1.52843
H          2.30565        2.89313       -2.21659
