40
COMP71_000010.log	Energy: -1624238.8680119
C          0.44436       -1.46727       -0.16811
C         -0.94049       -1.02020       -0.05254
C         -1.53370        0.08905       -0.56371
H         -0.98742        0.84817       -1.10374
C         -2.94538        0.15375       -0.30473
C         -3.84597        1.14970       -0.68968
H         -3.50352        2.01321       -1.25137
C         -5.17616        0.99738       -0.32991
S         -6.49277        2.09511       -0.68889
C         -7.62273        1.05566        0.13646
H         -8.66492        1.34219        0.18600
C         -7.05546       -0.05445        0.65626
H         -7.60549       -0.81185        1.20255
C         -5.63637       -0.12600        0.40755
C         -4.73572       -1.12106        0.79291
H         -5.07538       -1.98483        1.35603
C         -3.40634       -0.96912        0.42983
S         -2.09277       -2.06050        0.79418
C          1.65274       -0.78929       -0.18008
C          1.85963        0.67698       -0.05422
O          0.93446        1.47514       -0.06963
C          3.27743        1.11074        0.07389
C          3.68535        2.40533        0.28208
C          2.89405        3.66398        0.46453
S          5.41744        2.48189        0.33457
C          5.61242        0.78592        0.07215
C          6.97197        0.16505       -0.00260
C          4.38415        0.18967       -0.04349
C          4.19025       -1.25205       -0.25816
O          5.10857       -2.04838       -0.38480
C          2.77311       -1.68506       -0.28273
C          2.41532       -2.99646       -0.36082
H          3.08494       -3.84185       -0.43870
S          0.71797       -3.18434       -0.30999
H          1.83128        3.44348        0.38462
H          3.15991        4.40340       -0.29868
H          3.09450        4.11104        1.44434
H          7.75880        0.91155        0.13472
H          7.11208       -0.32680       -0.96909
H          7.07849       -0.60986        0.76157
