62
COMP87_240003.log	Energy: -2247383.2037110
C          0.27182        0.61655        0.29637
C          1.71851        0.78004        0.43714
C          2.39294        1.80885        1.05182
O          1.87913        2.88798        1.67124
C          3.80820        1.62960        1.01564
Cl         4.87937        2.78352        1.72738
C          4.21690        0.47919        0.38923
S          2.83514       -0.40738       -0.17880
C          5.58184        0.03643        0.19416
C          5.93472       -1.14441       -0.34582
C          7.28096       -1.63580       -0.57763
C          8.52195       -1.04988       -0.51029
Cl         8.85344        0.60818       -0.10726
C          9.60956       -1.92198       -0.83576
O         10.90883       -1.56066       -0.83915
C          9.18042       -3.17660       -1.15199
H          9.79229       -4.02079       -1.43241
S          7.46660       -3.29744       -1.05542
C         -0.33331       -0.64624        0.36342
C         -1.70693       -0.79637        0.25216
C         -2.52670        0.32799        0.10586
C         -3.95933        0.51300       -0.14356
C         -4.14756        1.99882       -0.33573
O         -5.17645        2.61361       -0.45811
N         -2.86555        2.58806       -0.21782
C         -2.57508        3.95898       -0.16977
O         -1.53307        4.39652        0.26237
O         -3.56006        4.69005       -0.66645
C         -3.34838        6.10315       -0.61009
C         -1.90258        1.58632        0.02647
C         -0.53101        1.74998        0.09442
C         -5.00661       -0.36322       -0.17870
C         -4.92728       -1.73116        0.45406
O         -4.01403       -2.20524        1.08234
N         -6.18952       -2.33982        0.26689
C         -6.58964       -3.59986        0.73304
O         -7.72357       -4.00942        0.64451
O         -5.58073       -4.27675        1.26392
C         -5.92928       -5.56245        1.78030
C         -7.04049       -1.46361       -0.45256
C         -8.32868       -1.70718       -0.90407
C         -8.94931       -0.71388       -1.65838
H         -9.95977       -0.88270       -2.01800
C         -8.29392        0.47576       -1.96150
C         -7.00545        0.71048       -1.49829
C         -6.36499       -0.25599       -0.71740
H          0.91534        2.81691        1.71632
H          6.33596        0.73900        0.52955
H          5.14980       -1.83871       -0.64379
H         10.97701       -0.63049       -0.58156
H          0.28010       -1.52673        0.52765
H         -2.14256       -1.78105        0.31547
H         -4.25080        6.54137       -1.03278
H         -2.47055        6.38109       -1.19751
H         -3.20979        6.42735        0.42348
H         -0.09436        2.72733       -0.05784
H         -5.00481       -5.96096        2.19520
H         -6.30398       -6.20759        0.98244
H         -6.69173       -5.46958        2.55678
H         -8.82819       -2.63671       -0.67633
H         -8.79047        1.23300       -2.55944
H         -6.51180        1.64195       -1.72588
