38
COMP62_330000.log	Energy: -1281200.6269015
C         -2.30995       -0.46928       -0.31771
C         -0.90604       -0.79992       -0.11006
C         -0.34043       -1.89172        0.51399
C         -1.08310       -2.94985        1.11732
N         -1.68412       -3.80958        1.60952
C          1.08679       -1.81134        0.57274
C          1.88478       -2.81387        1.20200
N          2.52531       -3.63666        1.70791
C          1.58345       -0.65870       -0.00662
S          0.29816        0.31928       -0.61749
C          2.97717       -0.26158       -0.16359
S          4.21428       -1.43863       -0.46065
C          5.43101       -0.24383       -0.54933
H          6.46285       -0.51494       -0.72435
C          4.93071        1.01548       -0.36402
C          5.73451        2.19641       -0.38350
N          6.39437        3.14812       -0.40391
C          3.51264        1.01128       -0.14250
C          2.77009        2.20928        0.08311
N          2.18617        3.19615        0.25140
C         -2.91800        0.72311       -0.05442
C         -2.69750        2.02835        0.56828
O         -1.70705        2.57515        1.00434
N         -4.00030        2.60805        0.56039
C         -4.26189        3.93815        1.06766
C         -4.92201        1.75054        0.00632
H         -5.96450        2.03612       -0.05604
C         -4.30402        0.60323       -0.38390
C         -4.53614       -0.73255       -0.92028
O         -5.51323       -1.28618       -1.37455
N         -3.24668       -1.34942       -0.83785
C         -3.01695       -2.65849       -1.41810
H         -3.32359        4.31499        1.47810
H         -5.01556        3.90930        1.85960
H         -4.59611        4.60567        0.26785
H         -3.79493       -2.81950       -2.16648
H         -3.08309       -3.44696       -0.66507
H         -2.03572       -2.69181       -1.89826
