50
COMP91_000012.log	Energy: -1478309.8177734
C         -0.23518       -0.11485       -0.01221
C          1.24309       -0.16161        0.04833
C          2.06600       -0.72208       -0.86707
H          1.71578       -1.12590       -1.81052
C          3.45133       -0.70754       -0.47126
C          4.55881       -1.18525       -1.17263
H          4.43900       -1.63154       -2.15502
C          5.80556       -1.07275       -0.57451
S          7.33864       -1.59561       -1.23928
C          8.17878       -1.04120        0.18412
H          9.25219       -1.16221        0.24475
C          7.36441       -0.49234        1.11129
H          7.71275       -0.09362        2.05700
C          5.97877       -0.49254        0.70922
C          4.86965       -0.01362        1.40978
H          4.98899        0.43399        2.39161
C          3.62412       -0.12671        0.81159
S          2.09159        0.38253        1.48471
C         -0.90000       -1.36177        0.09572
C         -2.26839       -1.44851        0.10468
C         -2.90740       -2.78816        0.22161
O         -2.28704       -3.82559        0.26425
N         -4.30647       -2.76819        0.26515
O         -4.91542       -3.97053        0.50094
C         -5.21540       -4.63929       -0.72564
C         -5.15782       -1.65827        0.18505
O         -6.36083       -1.78361        0.20038
C         -4.46849       -0.34460        0.06410
C         -5.22405        0.80293       -0.00730
H         -6.30516        0.72354        0.02863
C         -4.59130        2.05268       -0.12273
C         -3.21803        2.13914       -0.17335
C         -2.59934        3.48359       -0.30690
O         -3.23081        4.51577       -0.32869
N         -1.20763        3.47070       -0.40571
O         -0.62663        4.66736       -0.72718
C         -0.20138        5.35833        0.44806
C         -0.33790        2.36746       -0.37767
O          0.84826        2.52481       -0.54071
C         -0.99163        1.04482       -0.13695
C         -2.41230        0.97449       -0.10133
C         -3.05545       -0.27755        0.02489
H         -0.31374       -2.27021        0.18530
H         -5.70990       -5.56198       -0.42099
H         -4.29550       -4.87194       -1.27007
H         -5.89522       -4.03710       -1.33555
H         -5.17004        2.96850       -0.17532
H          0.24493        6.28088        0.07587
H          0.54979        4.77420        0.98802
H         -1.05782        5.59060        1.08819
