24
COMP54_000000.log	Energy: -1357212.8390152
C          0.00420        0.44347        0.07826
C          1.44602        0.27235        0.03516
C          2.16366       -0.87478        0.24311
H          1.70832       -1.82766        0.48545
C          3.56156       -0.64329        0.12798
S          4.98321       -1.62333        0.27669
C          5.99545       -0.24871       -0.05320
H          7.06943       -0.37499       -0.07191
C          5.29771        0.90079       -0.26577
H          5.75930        1.85552       -0.48332
C          3.89528        0.66852       -0.16084
S          2.47625        1.64959       -0.31751
C         -0.71525        1.58394        0.33031
H         -0.27611        2.54957        0.55271
N         -2.07328        1.45866        0.31132
C         -2.41627        0.22914        0.05053
S         -1.09445       -0.87055       -0.21000
C         -3.79400       -0.22929       -0.02565
S         -5.12116        0.86626        0.22431
C         -6.19799       -0.45142       -0.03774
H         -7.26999       -0.32216        0.00623
C         -5.49449       -1.59164       -0.28798
H         -5.93230       -2.56232       -0.48452
N         -4.13178       -1.46206       -0.28068
