36
COMP47_140000.log	Energy: -1507682.2007273
C          2.67342        0.70617       -0.00278
C          1.34695        0.13172       -0.00233
C          0.90652       -1.18756       -0.00509
O          1.55900       -2.33605       -0.00865
C         -0.52037       -1.26075       -0.00442
F         -1.12120       -2.45211       -0.00688
C         -1.18651       -0.07183       -0.00099
S         -0.03334        1.22532        0.00219
C         -2.60538        0.22427        0.00100
C         -3.57958       -0.70674       -0.00210
C         -4.99959       -0.41735       -0.00015
C         -5.67366        0.77189        0.00191
F         -5.09509        1.98830        0.00268
C         -7.09332        0.67683        0.00323
O         -7.91596        1.75002        0.00531
C         -7.50550       -0.62233        0.00208
H         -8.52187       -0.98684        0.00277
S         -6.16494       -1.71000       -0.00056
C          3.95547        0.19232       -0.00040
C          4.63161       -1.11549        0.00388
O          4.16923       -2.24910        0.00657
N          5.99444       -0.85619        0.00493
C          7.01619       -1.88225        0.00928
C          6.29880        0.51621        0.00173
O          7.41659        0.97028        0.00155
C          4.97870        1.18501       -0.00181
C          4.53371        2.45956       -0.00590
H          5.09449        3.38365       -0.00769
S          2.80580        2.46579       -0.00426
H          2.54693       -2.25176       -0.00621
H         -2.86966        1.27702        0.00546
H         -3.31144       -1.75834       -0.00648
H         -7.37333        2.54950        0.00554
H          6.51731       -2.85125        0.00769
H          7.64020       -1.78554        0.90094
H          7.64696       -1.78593       -0.87762
