32
COMP52_230400.log	Energy: -2192639.1509036
C         -1.40376       -0.09204        0.28997
C         -0.03077        0.37884        0.23481
C          0.51014        1.57236        0.63803
Cl        -0.39279        2.84258        1.36945
C          1.92259        1.66285        0.43398
C          2.70453        2.79420        0.81626
N          3.34487        3.71156        1.11854
C          2.45241        0.51657       -0.12153
S          1.21032       -0.63619       -0.44264
C          3.84686        0.22450       -0.43096
S          4.83110        1.33163       -1.31629
C          6.18971        0.28430       -1.25303
H          7.13195        0.56740       -1.69992
C          5.90377       -0.86828       -0.58891
Cl         7.03740       -2.14121       -0.33128
C          4.55624       -0.91686       -0.10990
C          4.01292       -1.99572        0.64975
N          3.55088       -2.85984        1.26882
C         -1.86269       -1.27901        0.82755
O         -1.15143       -2.22543        1.45604
N         -3.19370       -1.51372        0.70722
C         -3.77314       -0.52595        0.08259
S         -2.74462        0.77431       -0.40727
C         -5.20001       -0.48735       -0.19460
S         -6.24923       -1.77353        0.29412
C         -7.56198       -0.90582       -0.40884
H         -8.57049       -1.29378       -0.39036
C         -7.10658        0.27020       -0.94612
O         -7.81926        1.22104       -1.58074
N         -5.77237        0.50189       -0.82341
H         -0.23801       -1.93545        1.58521
H         -8.74672        0.95811       -1.60570
