36
COMP57_030400.log	Energy: -1664418.9263508
C          1.80571       -0.10145       -0.35727
C          0.41528        0.29352       -0.24998
C         -0.14122        1.55894       -0.21421
C          0.62051        2.76258       -0.32327
N          1.21679        3.75284       -0.41391
C         -1.55989        1.55870       -0.07558
H         -2.14244        2.46911       -0.00465
C         -2.09783        0.30229       -0.02699
S         -0.83925       -0.89879       -0.09306
C         -3.49171       -0.10460        0.07122
C         -4.52709        0.68856       -0.25021
C         -5.92347        0.31767       -0.06949
C         -6.46737       -0.64934        0.73412
H         -5.89049       -1.27624        1.40269
C         -7.88854       -0.72123        0.62430
C         -8.69864       -1.64097        1.36128
N         -9.34855       -2.39018        1.96099
C         -8.40469        0.19999       -0.25210
H         -9.44424        0.35596       -0.50355
S         -7.16955        1.15287       -0.95240
C          2.33541       -1.14517       -1.09466
O          1.67572       -1.99053       -1.90297
N          3.67255       -1.33496       -0.99209
C          4.19333       -0.44994       -0.18529
S          3.09535        0.69022        0.50561
C          5.61232       -0.39703        0.12577
S          6.73031       -1.51844       -0.57459
C          7.99014       -0.73700        0.30412
H          9.01761       -1.06417        0.23200
C          7.47070        0.29278        1.04475
O          8.12835        1.13820        1.86119
N          6.12768        0.48028        0.94131
H         -3.68262       -1.11521        0.42612
H         -4.33436        1.67030       -0.67806
H          0.77014       -1.67874       -2.03780
H          9.06722        0.91839        1.85534
