26
COMP44_100000.log	Energy: -1316192.8756175
C         -0.84910        0.84667       -0.00175
C          0.53987        0.43231       -0.00182
C          1.63667        1.25703       -0.00023
F          1.55462        2.58849        0.00108
C          2.87453        0.57666       -0.00035
S          4.54550        1.02850        0.00346
C          5.01095       -0.64890        0.00302
H          6.05344       -0.93189        0.00465
C          3.93924       -1.48255        0.00009
F          4.01769       -2.81091       -0.00099
C          2.69485       -0.79105       -0.00190
S          1.03265       -1.26040       -0.00300
C         -2.00549        0.10909       -0.00179
C         -2.40056       -1.31970       -0.00123
O         -1.71716       -2.31985       -0.00295
N         -3.80191       -1.31223        0.00062
C         -4.60665       -2.51456        0.00487
C         -4.36034       -0.02759        0.00104
O         -5.54436        0.21109        0.00314
C         -3.19138        0.88753       -0.00085
C         -2.97602        2.22397       -0.00016
H         -3.69566        3.03092        0.00111
S         -1.28027        2.55188       -0.00195
H         -3.92628       -3.36621       -0.02693
H         -5.26613       -2.52936       -0.86630
H         -5.21622       -2.55912        0.91104
