36
COMP62_410000.log	Energy: -1268646.9077996
C          1.90001        0.61862       -0.18396
C          0.58486        0.05130       -0.20660
C          0.25600       -1.27099       -0.51051
O          1.02883       -2.27461       -0.88349
C         -1.15576       -1.46233       -0.47696
F         -1.68989       -2.65143       -0.75435
C         -1.89937       -0.37221       -0.13272
S         -0.85793        0.98725        0.15491
C         -3.33598       -0.29150        0.01364
S         -4.39065       -1.65691       -0.23079
C         -5.79294       -0.71335        0.13113
H         -6.77250       -1.17057        0.10423
C         -5.48437        0.58198        0.42324
O         -6.30427        1.60637        0.74986
C         -4.07939        0.80493        0.35114
F         -3.55197        2.00431        0.60296
C          3.11132       -0.03145        0.00576
C          3.67678       -1.29511        0.37787
O          3.17620       -2.42085        0.53285
N          5.04404       -1.03105        0.54425
C          6.00690       -2.05254        0.89475
C          5.32135        0.30791        0.32658
H          6.32485        0.68944        0.45577
C          4.16632        0.93215       -0.01434
C          3.58060        2.24028       -0.26382
O          4.05935        3.34363       -0.40370
N          2.17578        1.97172       -0.34397
C          1.27738        3.03263       -0.75628
H          1.86821       -2.35936       -0.33256
H         -7.21669        1.29395        0.75345
H          5.46898       -2.99963        0.95450
H          6.46677       -1.83933        1.86438
H          6.78552       -2.12736        0.13018
H          1.91111        3.87623       -1.03562
H          0.61920        3.34823        0.05776
H          0.67673        2.72397       -1.61524
