54
COMP92_310003.log	Energy: -1812980.6510066
C          0.36859       -0.12801        0.04720
C         -1.08258       -0.33559        0.25772
C         -1.74093       -0.32656        1.46173
C         -1.10436       -0.04660        2.70548
N         -0.56205        0.18530        3.70287
C         -3.13797       -0.56310        1.30069
F         -3.96719       -0.56648        2.33239
C         -3.53046       -0.77043        0.01141
S         -2.14895       -0.68179       -1.04390
C         -4.87221       -1.04971       -0.46819
S         -5.58589       -0.22154       -1.82297
C         -7.04910       -1.09563       -1.67898
H         -7.86578       -0.92702       -2.36659
C         -7.02344       -1.97706       -0.63020
C         -8.10313       -2.83538       -0.26613
N         -8.98149       -3.53185        0.02646
C         -5.76789       -1.94021        0.04961
F         -5.51055       -2.72424        1.08492
C          1.18906       -1.27869        0.01946
C          2.54879       -1.17306       -0.13355
C          3.37546       -2.40950       -0.15651
O          2.91471       -3.52427       -0.04856
N          4.74786       -2.21275       -0.31908
C          5.56931       -3.41188       -0.39050
O          5.84375       -3.95140       -1.42066
O          5.92796       -3.76424        0.82889
C          6.74033       -4.94315        0.90137
C          5.41963       -0.99103       -0.42617
O          6.62591       -0.95672       -0.52761
C          4.56050        0.22210       -0.40517
C          5.14182        1.46286       -0.52048
H          6.21862        1.53235       -0.63011
C          4.34135        2.61994       -0.49421
C          2.97608        2.51966       -0.35561
C          2.16623        3.76194       -0.32473
O          2.63415        4.87664       -0.39721
N          0.78877        3.57198       -0.20629
C         -0.03503        4.77257       -0.23492
O         -0.44183        5.25793       -1.24812
O         -0.22924        5.19122        1.00002
C         -1.03798        6.36864        1.11895
C          0.10151        2.36432       -0.08457
O         -1.10724        2.36913        0.00571
C          0.94127        1.12950       -0.08752
C          2.34819        1.25368       -0.23592
C          3.15738        0.09529       -0.26008
H          0.74409       -2.26249        0.12786
H          6.91747       -5.10572        1.96282
H          7.68093       -4.78054        0.37119
H          6.21060       -5.79035        0.46143
H          4.78556        3.60556       -0.58172
H         -1.12771        6.54932        2.18840
H         -2.01819        6.19534        0.67045
H         -0.54833        7.20864        0.62204
