36
COMP57_240300.log	Energy: -2241189.6359987
C         -1.93781       -0.22924        0.34405
C         -0.59591        0.30166        0.40965
C         -0.21763        1.59188        0.72262
O         -1.00481        2.62156        1.08211
C          1.18882        1.78439        0.62782
Cl         1.91682        3.30739        0.98371
C          1.88381        0.65786        0.26044
S          0.79787       -0.66978        0.00946
C          3.31880        0.54000        0.09816
C          3.97042       -0.62787       -0.05342
C          5.39550       -0.82254       -0.23987
C          6.44151        0.04032       -0.46879
Cl         6.33052        1.76675       -0.62560
C          7.71550       -0.59617       -0.60198
O          8.87821        0.04559       -0.83198
C          7.62317       -1.95133       -0.47231
H          8.43148       -2.66502       -0.52809
S          6.00299       -2.44984       -0.19095
C         -2.39918       -1.51084        0.59335
C         -1.58020       -2.59835        1.03396
N         -0.91321       -3.47622        1.39104
N         -3.74083       -1.72274        0.41972
C         -4.33179       -0.63005        0.04889
S         -3.28895        0.74881       -0.15710
C         -5.76231       -0.52811       -0.19107
S         -6.80815       -1.90740       -0.01098
C         -8.12789       -0.91108       -0.45786
H         -9.13851       -1.28880       -0.52154
C         -7.69254        0.36359       -0.70541
C         -8.55207        1.44017       -1.10085
N         -9.26846        2.29285       -1.41831
N         -6.34610        0.57620       -0.55257
H         -1.87000        2.30696        1.37731
H          3.85657        1.48063        0.11894
H          3.39609       -1.55351       -0.02336
H          8.71126        0.99715       -0.88275
