57
COMP89_000013.log	Energy: -1551582.7895340
C         -1.82633        0.08471        0.14149
C         -3.28881        0.00827        0.17564
C         -4.18246        1.02286        0.43115
C         -5.52617        0.58749        0.38135
C         -5.64161       -0.75324        0.08804
S         -4.11740       -1.50653       -0.13715
C         -7.04216       -1.10955        0.05463
C         -7.79557        0.00975        0.32968
C         -6.89530        1.20111        0.56480
H         -7.02627        1.62719        1.56679
H         -7.08258        2.00546       -0.15686
C         -9.19091       -0.25276        0.31442
C         -9.45540       -1.56288        0.02851
H        -10.42074       -2.04348       -0.05040
S         -8.01419       -2.49858       -0.22736
C         -1.02635       -1.04392        0.36465
C          0.35665       -0.97150        0.31513
C          0.98496        0.24830        0.04850
C          2.38326        0.67594        0.02747
C          2.34501        2.16983       -0.18961
O          3.27113        2.92464       -0.34404
N          0.97885        2.53328       -0.28843
C          0.46825        3.81990       -0.50052
O         -0.70781        4.04919       -0.66729
O          1.42020        4.74296       -0.48267
C          0.96595        6.07753       -0.71095
C          0.16822        1.38313       -0.12740
C         -1.21176        1.32126       -0.10709
C          3.55896       -0.01697        0.10465
C          3.63147       -1.49973       -0.16510
O          2.74140       -2.24173       -0.49815
N          4.99504       -1.86403       -0.06954
C          5.53696       -3.13775       -0.28499
O          6.72383       -3.34571       -0.38540
O          4.59801       -4.07274       -0.34436
C          5.08194       -5.39303       -0.59371
C          5.77285       -0.72653        0.25740
C          7.13510       -0.67336        0.51038
C          7.67391        0.55004        0.90133
H          8.73965        0.61642        1.09804
C          6.86855        1.67551        1.04904
C          5.50598        1.61061        0.78420
C          4.93980        0.40465        0.36056
H         -3.87060        2.03422        0.66580
H         -9.96543        0.48144        0.50291
H         -1.49038       -1.99877        0.59238
H          0.94174       -1.86303        0.47583
H          1.86493        6.69108       -0.67577
H          0.26003        6.38119        0.06531
H          0.48372        6.15726       -1.68772
H         -1.79660        2.20742       -0.30040
H          4.19282       -6.02159       -0.61018
H          5.76437       -5.70822        0.19872
H          5.60054       -5.43592       -1.55412
H          7.75118       -1.55387        0.40469
H          7.30389        2.61698        1.36791
H          4.89379        2.49227        0.88854
