30
COMP52_020300.log	Energy: -2098266.6276463
C          0.86692       -0.36799       -0.26952
C         -0.51757        0.06824       -0.31838
C         -0.95088        1.34123       -0.59544
H         -0.29960        2.16844       -0.85175
C         -2.35949        1.45661       -0.52524
Cl        -3.17514        2.95343       -0.81920
C         -3.00059        0.28901       -0.19634
S         -1.85083       -0.98786        0.02170
C         -4.43289        0.03849       -0.06099
S         -5.48787        0.05735       -1.44022
C         -6.85830       -0.31444       -0.47244
H         -7.83442       -0.40870       -0.92790
C         -6.53991       -0.45455        0.84396
H         -7.24776       -0.68591        1.62916
C         -5.14938       -0.25248        1.07041
Cl        -4.44744       -0.34981        2.65099
C          1.42369       -1.62193       -0.43634
C          0.68087       -2.81598       -0.70232
N          0.06981       -3.77790       -0.91283
N          2.78831       -1.69782       -0.35111
C          3.29151       -0.52290       -0.12284
S          2.13989        0.76927        0.02630
C          4.71852       -0.27198        0.00739
S          5.88184       -1.55791       -0.13781
C          7.12269       -0.40815        0.13048
H          8.16812       -0.68162        0.14840
C          6.58035        0.83688        0.30699
C          7.35278        2.01876        0.55371
N          8.00030        2.95821        0.75165
N          5.21290        0.90892        0.23568
