28
COMP54_400300.log	Energy: -1567294.7618356
C          0.15759        0.49571       -0.10246
C          1.56190        0.15069       -0.06123
C          2.13625       -1.01889       -0.52021
O          1.54067       -2.05726       -1.13879
C          3.53350       -1.05252       -0.27120
S          4.79929       -2.18420       -0.59984
C          5.95840       -1.10601        0.13249
H          6.99958       -1.39576        0.18411
C          5.40391        0.05168        0.59598
O          6.00760        1.09345        1.21154
C          3.99624        0.08013        0.36213
S          2.74934        1.23056        0.67020
C         -0.45308        1.71849       -0.31872
C          0.24282        2.93500       -0.60956
N          0.80411        3.91957       -0.85070
N         -1.82207        1.73487       -0.27787
C         -2.28645        0.54720       -0.04234
S         -1.08474       -0.68919        0.19167
C         -3.70559        0.23621        0.02610
S         -4.91283        1.47057       -0.18940
C         -6.11659        0.27343        0.03782
H         -7.17205        0.50322        0.00324
C         -5.53227       -0.94584        0.25478
C         -6.26544       -2.15673        0.47957
N         -6.88141       -3.12106        0.65777
N         -4.16079       -0.96168        0.24789
H          0.64777       -1.82190       -1.42572
H          6.95566        0.92789        1.27560
