37
COMP27_340300.log	Energy: -1530272.9415733
C         -2.92058        0.17995       -0.11236
C         -1.52832       -0.26015       -0.17970
C         -1.01209       -1.49908       -0.53369
O         -1.66830       -2.60249       -0.90186
C          0.41624       -1.53099       -0.52495
C          1.12994       -2.71731       -0.85773
N          1.72908       -3.67412       -1.12439
C          0.99235       -0.33490       -0.13056
S         -0.22367        0.83040        0.21623
C          2.37679        0.06111        0.04879
C          3.44872       -0.68068       -0.29374
C          4.83311       -0.29066       -0.11120
C          5.40627        0.79662        0.53185
C          4.71813        1.83214        1.22089
N          4.23228        2.71290        1.80179
C          6.83968        0.80050        0.46879
O          7.62899        1.74468        1.01611
C          7.33162       -0.27561       -0.21263
H          8.36976       -0.50533       -0.40059
S          6.06823       -1.29383       -0.77635
C         -3.95604       -0.69814        0.37472
N         -3.79079       -1.97810        0.71200
S         -5.23461       -2.53980        1.21268
N         -6.12296       -1.20045        1.03116
C         -5.30990       -0.25488        0.55694
C         -5.68872        1.07422        0.24054
H         -6.70707        1.41036        0.39029
C         -4.72143        1.89346       -0.26671
C         -5.07965        3.23966       -0.62021
N         -5.40297        4.31780       -0.89246
C         -3.35281        1.45423       -0.45913
C         -2.47292        2.40605       -1.07393
N         -1.81735        3.20347       -1.60076
H         -2.51094       -2.64826       -0.40906
H          2.51807        1.04567        0.48549
H          3.30440       -1.65273       -0.75553
H          7.08759        2.42066        1.44738
