58
COMP97_300003.log	Energy: -1737038.6013730
C          0.78958       -0.16393        0.34845
C         -0.64795       -0.43663        0.56991
C         -1.20111       -1.03052        1.66446
H         -0.64159       -1.30276        2.55125
C         -2.60750       -1.23053        1.53382
C         -3.38507       -1.81612        2.57569
N         -4.01081       -2.29765        3.42611
C         -3.11393       -0.80363        0.31593
S         -1.83720       -0.14983       -0.65131
C         -4.45264       -0.82220       -0.24793
C         -5.54046       -1.36189        0.33524
C         -6.88090       -1.38080       -0.22500
C         -7.40317       -0.89877       -1.41647
C         -6.64544       -0.22109       -2.41687
N         -6.03581        0.33134       -3.23535
C         -8.80305       -1.14261       -1.56460
H         -9.36989       -0.83339       -2.43371
C         -9.32932       -1.80096       -0.49693
H        -10.35491       -2.10761       -0.34690
S         -8.13910       -2.13191        0.69810
C          1.62608       -1.29863        0.20858
C          2.97115       -1.17168       -0.02639
C          3.80407       -2.39594       -0.16108
O          3.36821       -3.52052       -0.04892
N          5.15600       -2.17617       -0.43400
C          5.97744       -3.35997       -0.63045
O          6.14507       -3.86575       -1.69999
O          6.47152       -3.74455        0.53121
C          7.30682       -4.90777        0.47366
C          5.80386       -0.94290       -0.55677
O          6.99603       -0.89145       -0.76550
C          4.93962        0.25757       -0.41331
C          5.49810        1.50873       -0.53429
H          6.56023        1.59569       -0.73555
C          4.69146        2.65221       -0.39531
C          3.34619        2.52924       -0.13085
C          2.53508        3.76170        0.01868
O          2.97304        4.88207       -0.12549
N          1.19859        3.55296        0.35574
C          0.40726        4.74149        0.63684
O          0.40211        5.28375        1.70154
O         -0.26067        5.08347       -0.44832
C         -1.11011        6.22769       -0.29629
C          0.53899        2.33153        0.52198
O         -0.61994        2.32647        0.87406
C          1.35091        1.10544        0.26368
C          2.74070        1.25295       -0.00288
C          3.55640        0.10832       -0.15093
H         -4.54453       -0.35265       -1.22252
H         -5.44679       -1.83392        1.30856
H          1.19395       -2.29129        0.28012
H          7.61736       -5.09032        1.50074
H          8.17083       -4.71448       -0.16539
H          6.74112       -5.75547        0.08196
H          5.11403        3.64654       -0.49134
H         -1.58075        6.36819       -1.26758
H         -0.51559        7.10149       -0.02175
H         -1.85963        6.03482        0.47399
