38
COMP61_400010.log	Energy: -1191975.4130280
C          2.11369        0.70796       -0.09206
C          0.69113        0.56518       -0.00778
C         -0.03802       -0.57610       -0.32267
O          0.39060       -1.73948       -0.77549
C         -1.46508       -0.37642       -0.20090
C         -2.45344       -1.32378       -0.46351
H         -2.17621       -2.31516       -0.80558
C         -3.77089       -0.94109       -0.26774
S         -5.20209       -1.91770       -0.52085
C         -6.22770       -0.59138       -0.02339
H         -7.30193       -0.72269       -0.00995
C         -5.53275        0.52051        0.31355
O         -6.01281        1.71513        0.73931
C         -4.10359        0.35922        0.18611
C         -3.11300        1.30320        0.45332
H         -3.37858        2.29556        0.80156
C         -1.79651        0.91773        0.24956
S         -0.37218        1.89188        0.51069
C          3.08548       -0.28280       -0.01354
C          3.26921       -1.66902        0.29211
O          2.46102       -2.59882        0.46555
N          4.65888       -1.83584        0.35098
C          5.29003       -3.11172        0.60975
C          5.31237       -0.63440        0.13192
H          6.39053       -0.57634        0.18885
C          4.37762        0.31941       -0.10635
C          4.19680        1.75144       -0.29034
O          4.97507        2.66380       -0.45843
N          2.77472        1.92045       -0.25612
C          2.21287        3.21378       -0.59693
H          1.20677       -2.09551       -0.29281
H         -6.97588        1.67936        0.77647
H          4.49608       -3.85304        0.71078
H          5.86984       -3.07789        1.53709
H          5.94479       -3.39517       -0.21947
H          3.04824        3.82903       -0.93599
H          1.75459        3.69765        0.26951
H          1.47455        3.11972       -1.39618
