34
COMP71_200011.log	Energy: -2151684.7907281
C          1.46456       -1.31933       -0.53014
C          0.05404       -0.94911       -0.39790
C         -0.75500       -1.15506        0.66895
Cl        -0.23204       -1.91394        2.13320
C         -2.09802       -0.65931        0.50033
C         -3.16250       -0.70150        1.39838
H         -3.04106       -1.15320        2.37743
C         -4.36648       -0.14759        0.99151
S         -5.84702       -0.07174        1.92467
C         -6.66703        0.74057        0.62288
H         -7.70463        1.02600        0.72669
C         -5.87269        0.94231       -0.44936
Cl        -6.39846        1.72467       -1.90403
C         -4.52698        0.44428       -0.28631
C         -3.46234        0.48551       -1.18411
H         -3.58234        0.94036       -2.16189
C         -2.25746       -0.06751       -0.77706
S         -0.78101       -0.14083       -1.70925
C          2.57829       -0.54439       -0.32235
C          2.56246        0.87905        0.11167
O          1.53999        1.50541        0.31717
C          3.91094        1.47439        0.27493
C          4.13863        2.76460        0.65892
H          3.39425        3.51282        0.89426
S          5.82025        3.10807        0.73761
C          6.23979        1.51375        0.25370
H          7.27063        1.20542        0.14523
C          5.12841        0.75037        0.04004
C          5.14788       -0.66777       -0.38576
O          6.17420       -1.29116       -0.58541
C          3.79906       -1.26524       -0.54955
C          3.58385       -2.55995       -0.92480
H          4.34034       -3.30016       -1.14774
S          1.91349       -2.92525       -1.00728
