48
COMP72_330003.log	Energy: -2044400.8571533
C         -0.12495       -1.85214       -0.43776
C         -1.37761       -1.12810       -0.63253
C         -1.61211       -0.10816       -1.52407
C         -0.62276        0.37468       -2.43202
N          0.19197        0.73756       -3.17102
C         -2.94334        0.40727       -1.43548
C         -3.41477        1.48244       -2.24811
N         -3.80306        2.34710       -2.91481
C         -3.70432       -0.23988       -0.48278
S         -2.77949       -1.46786        0.30775
C         -5.10397       -0.01210       -0.14255
S         -6.28836        0.29014       -1.36935
C         -7.55075        0.40283       -0.22465
H         -8.56504        0.61087       -0.53578
C         -7.10509        0.21139        1.05433
C         -7.95356        0.25212        2.20293
N         -8.64955        0.28268        3.12833
C         -5.69095       -0.02915        1.10653
C         -4.98571       -0.24139        2.32945
N         -4.42243       -0.42247        3.32591
C          1.11088       -1.33338       -0.13819
C          1.39678        0.08341        0.22458
O          0.52433        0.86086        0.54642
C          2.84761        0.42640        0.22303
C          3.36833        1.69787        0.28009
C          2.67528        3.01264        0.15040
O          1.69006        3.21532       -0.50688
O          3.35285        3.95416        0.82480
C          2.82799        5.27967        0.70759
S          5.08559        1.66847        0.38708
C          5.13167       -0.04656        0.29352
C          6.45172       -0.73589        0.18082
O          6.70161       -1.61337       -0.60208
O          7.33308       -0.18846        1.02785
C          8.65584       -0.72976        0.96097
C          3.86759       -0.58197        0.22997
C          3.54354       -2.03677        0.23295
O          4.34861       -2.90713        0.48906
C          2.12528       -2.33787       -0.08474
C          1.64369       -3.59284       -0.32494
H          2.20930       -4.51483       -0.32653
S         -0.03497       -3.57125       -0.65604
H          3.50064        5.91110        1.28599
H          1.81545        5.32162        1.11476
H          2.80787        5.58974       -0.33971
H          9.23043       -0.18548        1.70881
H          9.07897       -0.58095       -0.03523
H          8.63755       -1.79777        1.18821
