44
COMP82_010001.log	Energy: -1366285.9440664
C         -0.78375        0.46996        0.19775
C         -2.24483        0.59532        0.24199
C         -2.98124        1.66765        0.66773
H         -2.56640        2.58170        1.07329
C         -4.36845        1.42285        0.56364
F         -5.27629        2.33461        0.93588
C         -4.72041        0.19494        0.06979
S         -3.27172       -0.70071       -0.29325
C         -6.04997       -0.33617       -0.14752
S         -7.50143        0.55921        0.21160
C         -8.50738       -0.73724       -0.31442
H         -9.58242       -0.63168       -0.27345
C         -7.79114       -1.81099       -0.74667
H         -8.20998       -2.73527       -1.12241
C         -6.39943       -1.56386       -0.64420
F         -5.48984       -2.47578       -1.01123
C         -0.15318       -0.76920        0.35495
C          1.23239       -0.89425        0.32729
C          2.03162        0.23656        0.15114
C          3.48058        0.48315        0.00672
C          3.59225        1.97359       -0.28879
O          4.56973        2.66891       -0.47847
N          2.31035        2.46634       -0.25848
H          2.11567        3.44113       -0.42349
C          1.37216        1.47178       -0.02824
C          0.00011        1.61447       -0.00924
C          4.56426       -0.33521        0.13356
C          4.47459       -1.74422        0.70910
O          3.51468       -2.36609        1.11953
N          5.75851       -2.22511        0.74178
H          5.96961       -3.14384        1.09767
C          6.67256       -1.31735        0.22387
C          8.03298       -1.50374        0.06003
C          8.76145       -0.46732       -0.52185
H          9.83171       -0.58296       -0.66376
C          8.12690        0.70289       -0.92698
C          6.75489        0.87682       -0.75080
C          5.99992       -0.13588       -0.15434
H         -0.75186       -1.65755        0.53167
H          1.68813       -1.86151        0.46807
H         -0.46193        2.58080       -0.18442
H          8.51169       -2.42799        0.36787
H          8.70406        1.49913       -1.38572
H          6.27885        1.79407       -1.05924
