34
COMP52_430300.log	Energy: -1731573.5197070
C          0.98445       -0.16754       -0.49679
C         -0.40342        0.25669       -0.43999
C         -0.89335        1.52588       -0.64778
O         -0.20824        2.63409       -0.97139
C         -2.30919        1.60800       -0.47959
C         -3.02066        2.83528       -0.62497
N         -3.59091        3.83683       -0.74791
C         -2.87649        0.39309       -0.14267
S         -1.68750       -0.84753       -0.04474
C         -4.28576        0.09250        0.07478
S         -5.50266        0.72558       -0.96938
C         -6.75724       -0.07469       -0.10587
H         -7.78881        0.04353       -0.40774
C         -6.26816       -0.80346        0.94022
O         -6.94918       -1.54787        1.83274
C         -4.84303       -0.71453        1.04918
C         -4.11288       -1.36514        2.08716
N         -3.52038       -1.89581        2.93049
C          1.53755       -1.25686       -1.13910
C          0.78456       -2.17845       -1.93613
N          0.15763       -2.90900       -2.58039
N          2.88972       -1.42032       -1.01009
C          3.39259       -0.46782       -0.28449
S          2.24984        0.68860        0.33160
C          4.81263       -0.34787        0.01023
S          5.95968       -1.51250       -0.58242
C          7.19907       -0.62251        0.19445
H          8.23640       -0.92322        0.15377
C          6.66790        0.46815        0.83114
C          7.44349        1.41770        1.57334
N          8.09393        2.17092        2.16536
N          5.30945        0.61922        0.72343
H          0.70854        2.41938       -1.19093
H         -7.89484       -1.49932        1.64819
