38
COMP51_100020.log	Energy: -1721779.8616721
C         -1.95720       -0.58978        0.06820
C         -0.51597       -0.45124        0.06155
C          0.21556        0.68364       -0.07892
F         -0.34918        1.88626       -0.23408
C          1.64080        0.51650       -0.04032
C          2.66879        1.45824       -0.16016
O          2.44466        2.78759       -0.35152
C          2.09765        3.50470        0.83055
C          3.97455        0.98367       -0.11204
S          5.40332        1.98353       -0.23509
C          6.42533        0.58443       -0.04756
H          7.50171        0.67880       -0.05062
C          5.71872       -0.55528        0.09020
F          6.28130       -1.75731        0.24198
C          4.28796       -0.38593        0.05271
C          3.25700       -1.32730        0.17266
O          3.47532       -2.65805        0.36516
C          3.83826       -3.37335       -0.81321
C          1.95421       -0.85265        0.12491
S          0.52821       -1.85594        0.25375
C         -2.68667       -1.74500        0.20881
H         -2.25800       -2.73255        0.33659
N         -4.04164       -1.61125        0.18423
C         -4.37265       -0.35992        0.02494
S         -3.04751        0.75385       -0.10805
C         -5.74705        0.11004       -0.04216
S         -7.08486       -0.99447        0.07996
C         -8.14907        0.34819       -0.09093
H         -9.22243        0.22259       -0.08459
C         -7.43469        1.50131       -0.22465
H         -7.86335        2.48799       -0.34843
N         -6.07343        1.36241       -0.19647
H          1.99144        4.54776        0.53118
H          2.88865        3.41505        1.58436
H          1.14995        3.14691        1.24465
H          3.93575       -4.41764       -0.51484
H          4.79368       -3.01763       -1.21038
H          3.05932       -3.27929       -1.57898
