50
COMP92_410002.log	Energy: -1649354.6287547
C         -0.39120        0.27746        0.26716
C          1.05291        0.53228        0.37094
C          1.76557        1.35248        1.21803
O          1.28796        2.27427        2.06408
C          3.16291        1.08773        1.15545
F          4.02692        1.78316        1.89565
C          3.53974        0.10322        0.28957
S          2.12869       -0.54609       -0.49417
C          4.88122       -0.33620       -0.02869
S          6.30498        0.37168        0.68420
C          7.34859       -0.68344       -0.20475
H          8.42029       -0.61395       -0.07918
C          6.65428       -1.53669       -1.00907
O          7.11683       -2.49496       -1.84404
C          5.24956       -1.32620       -0.89481
F          4.37808       -2.05343       -1.59708
C         -0.76557       -1.09066        0.43339
C         -2.06145       -1.51357        0.36066
C         -2.36051       -2.95426        0.59806
O         -1.51488       -3.78253        0.84360
N         -3.71455       -3.29337        0.50141
O         -4.03557       -4.57653        0.85025
C         -4.01641       -5.43827       -0.28978
C         -4.79123       -2.45859        0.17845
O         -5.91775       -2.88904        0.08536
C         -4.43643       -1.02995       -0.05031
C         -5.43439       -0.14157       -0.38398
H         -6.45403       -0.50024       -0.47108
C         -5.11187        1.20128       -0.62248
C         -3.81025        1.64360       -0.50371
C         -3.53182        3.06274       -0.81602
O         -4.37202        3.87124       -1.13885
N         -2.18440        3.41728       -0.69841
O         -1.86634        4.69765       -1.05799
C         -2.03091        5.60476        0.03584
C         -1.13366        2.64519       -0.20707
O         -0.06481        3.19166        0.01693
C         -1.40964        1.20336        0.00097
C         -2.76378        0.76092       -0.13534
C         -3.09702       -0.59671        0.06523
H          0.66202        2.80960        1.53489
H          8.08032       -2.50994       -1.80557
H         -0.00213       -1.82468        0.66663
H         -4.27867       -6.41957        0.10632
H         -3.01594       -5.47083       -0.73084
H         -4.76298       -5.12069       -1.02340
H         -5.87378        1.91580       -0.91449
H         -1.76123        6.57703       -0.37670
H         -1.35230        5.34692        0.85369
H         -3.07200        5.61864        0.36989
