37
COMP47_310002.log	Energy: -1576170.1521256
C          2.80471       -1.14130       -0.02327
C          1.35725       -1.20644        0.00241
C          0.58208       -2.33352        0.08747
F          1.08846       -3.56115        0.16001
C         -0.81819       -2.11503        0.09663
C         -1.75332       -3.18364        0.18949
N         -2.52123       -4.04968        0.26323
C         -1.12006       -0.76353        0.01404
S          0.31936        0.18951       -0.07009
C         -2.38852       -0.05982       -0.00918
C         -3.60322       -0.64327       -0.02724
C         -4.87573        0.05414       -0.04559
C         -5.19346        1.40150        0.02709
C         -4.26328        2.47056        0.15639
N         -3.50188        3.33906        0.26236
C         -6.60229        1.62092       -0.03067
F         -7.11150        2.84467        0.02412
C         -7.34163        0.48765       -0.14165
H         -8.41630        0.40419       -0.20273
S         -6.31893       -0.89317       -0.17827
C          3.64338       -0.06077       -0.10406
C          3.51653        1.41311       -0.19122
O          2.54289        2.12645       -0.22508
N          4.84841        1.85647       -0.20522
O          5.16180        3.15825       -0.43384
C          5.31297        3.86441        0.80126
C          5.83186        0.84849       -0.17893
O          7.02166        1.02485       -0.19964
C          5.02396       -0.39568       -0.09919
C          5.26580       -1.72573       -0.01645
H          6.21366       -2.24566        0.00557
S          3.77917       -2.60073        0.05514
H         -2.30880        1.02343       -0.01656
H         -3.67992       -1.72663       -0.03433
H          5.56055        4.88540        0.50955
H          6.12848        3.43404        1.39006
H          4.37523        3.85386        1.36478
