33
COMP42_320002.log	Energy: -1979886.8385586
C          2.12374        1.08730        0.06973
C          0.67210        1.11873       -0.05613
C         -0.17788        2.21304        0.02433
C          0.22075        3.56544        0.23293
N          0.52236        4.67238        0.40164
C         -1.55286        1.85519       -0.12324
Cl        -2.82757        3.01038       -0.04875
C         -1.74505        0.51709       -0.31129
S         -0.23621       -0.33136       -0.32656
C         -3.00674       -0.19988       -0.48178
S         -3.88389       -0.16373       -1.98145
C         -5.11335       -1.17548       -1.36372
H         -5.95968       -1.46092       -1.97293
C         -4.87849       -1.53969       -0.06420
C         -5.74995       -2.37948        0.69309
N         -6.46391       -3.06231        1.29830
C         -3.66098       -0.97369        0.43644
Cl        -3.10245       -1.23763        2.04333
C          2.99651        0.03657       -0.08291
C          2.93553       -1.41208       -0.41779
O          2.00040       -2.13154       -0.67214
N          4.27433       -1.82287       -0.35544
O          4.65432       -3.06257       -0.75882
C          4.72235       -3.95932        0.35460
C          5.21274       -0.81554       -0.06133
O          6.40347       -0.96240        0.01956
C          4.35611        0.38168        0.12980
C          4.54972        1.68465        0.44866
H          5.47557        2.20379        0.65574
S          3.04723        2.52156        0.48930
H          5.03899       -4.90963       -0.07570
H          3.73827       -4.06771        0.82020
H          5.46260       -3.61138        1.08099
