40
COMP62_110003.log	Energy: -1535339.0849478
C         -1.33482        0.85874        0.08023
C          0.10172        0.76400       -0.03238
C          0.96696        1.64160       -0.63343
F          0.60736        2.77122       -1.23125
C          2.31816        1.23502       -0.58343
F          3.29347        1.97889       -1.08714
C          2.49710        0.03042        0.03968
S          0.97465       -0.62307        0.55018
C          3.75053       -0.66605        0.25412
S          4.11726       -1.50930        1.73287
C          5.66240       -2.00634        1.15037
H          6.32400       -2.60860        1.75486
C          5.88476       -1.53456       -0.10199
F          6.98485       -1.74555       -0.81676
C          4.79659       -0.77490       -0.61676
F          4.81650       -0.25993       -1.83876
C         -2.26384       -0.13799        0.08388
C         -2.37904       -1.59085       -0.01412
O         -1.55081       -2.46668        0.00704
N         -3.81879       -1.77824       -0.11685
C         -4.55059       -2.97151       -0.22539
O         -5.75575       -2.97751       -0.30883
O         -3.76239       -4.03312       -0.22393
C         -4.44111       -5.28671       -0.33798
C         -4.48657       -0.55012       -0.09060
H         -5.56180       -0.53123       -0.19102
C         -3.57669        0.43406        0.04554
C         -3.46162        1.89001        0.06401
O         -4.28742        2.76207        0.11151
N         -2.01947        2.09303        0.07414
C         -1.43261        3.30548        0.51738
O         -0.52694        3.35513        1.31012
O         -2.02729        4.33456       -0.05881
C         -1.58042        5.61763        0.38653
H         -3.65697       -6.03981       -0.28464
H         -4.96938       -5.34738       -1.29203
H         -5.15437       -5.41055        0.47960
H         -2.18031        6.33629       -0.16894
H         -0.51839        5.74425        0.16624
H         -1.74567        5.72676        1.46056
