39
COMP47_240003.log	Energy: -2078241.8301601
C          2.04678        1.12517       -0.36791
C          0.83747        0.34033       -0.33982
C          0.63701       -0.98067       -0.70710
O          1.53169       -1.87130       -1.11640
C         -0.75128       -1.32909       -0.68765
Cl        -1.27192       -2.91810       -1.11288
C         -1.59535       -0.31759       -0.30972
S         -0.68264        1.11222        0.06123
C         -3.03487       -0.39386       -0.17372
C         -3.82514        0.64811        0.14452
C         -5.26608        0.64575        0.31101
C         -6.22011       -0.34308        0.26763
Cl        -5.93511       -2.03144       -0.02477
C         -7.55628        0.11200        0.50027
O         -8.64791       -0.67867        0.50712
C         -7.60609        1.45713        0.72036
H         -8.48684        2.04883        0.92019
S         -6.04131        2.16557        0.64466
C          3.37525        0.80021       -0.20565
C          4.16201       -0.39282        0.11959
O          3.80403       -1.55104        0.22994
N          5.49587        0.05016        0.24174
C          6.61684       -0.78821        0.49335
O          7.67640       -0.65085       -0.05135
O          6.30934       -1.69538        1.40978
C          7.33753       -2.65469        1.67424
C          5.64018        1.45593       -0.01665
O          6.66326        2.07680        0.04400
C          4.26034        1.90662       -0.29417
C          3.65234        3.09375       -0.52417
H          4.08908        4.07855       -0.61416
S          1.94651        2.85484       -0.66529
H          2.38736       -1.77655       -0.63337
H         -3.45474       -1.37612       -0.35395
H         -3.36335        1.62292        0.29913
H         -8.37919       -1.59085        0.32874
H          6.90965       -3.34074        2.40318
H          8.22199       -2.15911        2.07992
H          7.60588       -3.18424        0.75750
