52
COMP95_000031.log	Energy: -1061251.9501102
C         -0.89665       -0.59895       -0.46018
C          0.57337       -0.77348       -0.62148
C          1.44324       -0.01921        0.16517
C          2.80666       -0.24908        0.03886
N          3.90953        0.35741        0.68669
C          3.91208        1.38058        1.62083
O          4.91097        1.86366        2.10125
O          2.66983        1.76922        1.93324
C          2.59809        2.83481        2.88152
C          5.09533       -0.23772        0.19297
C          6.42694        0.01695        0.51382
C          7.39674       -0.73520       -0.14018
H          8.44204       -0.55433        0.09112
C          7.06140       -1.71152       -1.08454
C          5.73193       -1.95688       -1.39614
C          4.74491       -1.21380       -0.75232
C          3.29912       -1.22126       -0.85138
C          2.42022       -1.97680       -1.62001
C          1.05679       -1.75574       -1.49528
C         -1.61324       -1.72424        0.02098
C         -2.95754       -1.67003        0.27948
C         -3.65498       -2.88130        0.79057
O         -3.10792       -3.94686        0.97994
N         -5.01075       -2.71599        1.04573
H         -5.49744       -3.53338        1.39575
C         -5.78469       -1.57260        0.88581
O         -6.96710       -1.57711        1.15598
C         -5.05922       -0.38088        0.36883
C         -5.74553        0.79562        0.17526
H         -6.80480        0.83202        0.40557
C         -5.06968        1.92439       -0.31620
C         -3.72590        1.86157       -0.61053
C         -3.05624        3.07694       -1.13717
O         -3.61415        4.14164       -1.30625
N         -1.71733        2.90905       -1.44287
H         -1.25648        3.70593       -1.86715
C         -0.93187        1.76101       -1.34914
O          0.19577        1.77933       -1.79073
C         -1.59108        0.58013       -0.70854
C         -2.98691        0.66411       -0.41976
C         -3.67451       -0.46574        0.08018
H          1.05710        0.72802        0.84184
H          1.53412        3.00832        3.03819
H          3.07846        3.73159        2.48454
H          3.08329        2.54894        3.81692
H          6.69192        0.77065        1.24098
H          7.84658       -2.27774       -1.57559
H          5.46168       -2.71149       -2.12882
H          2.79578       -2.72786       -2.30803
H          0.35702       -2.33418       -2.09122
H         -1.08185       -2.65210        0.20743
H         -5.58951        2.86323       -0.47441
