33
COMP27_300000.log	Energy: -1320191.2795271
C          3.06889        0.78246        0.12148
C          1.70500        0.24887        0.10496
C          1.28886       -1.05244        0.20099
H          1.96920       -1.88838        0.28530
C         -0.12748       -1.19181        0.17238
C         -0.75886       -2.46769        0.26717
N         -1.26965       -3.50663        0.34576
C         -0.80494        0.01190        0.04822
S          0.33417        1.31038       -0.03907
C         -2.21685        0.34079       -0.02251
C         -3.23216       -0.54286        0.04508
C         -4.64596       -0.21583       -0.02014
C         -5.32421        0.99091       -0.11613
C         -4.69501        2.26935       -0.17506
N         -4.18987        3.31301       -0.22388
C         -6.74513        0.84404       -0.14778
H         -7.42716        1.68194       -0.21922
C         -7.13264       -0.45780       -0.07570
H         -8.13933       -0.85153       -0.07998
S         -5.78524       -1.51966        0.03053
C          4.21695       -0.07325       -0.03862
N          4.20633       -1.39552       -0.21056
S          5.75794       -1.86574       -0.33916
N          6.50627       -0.43306       -0.18635
C          5.54856        0.48186       -0.02530
C          5.75662        1.87923        0.14685
H          6.76430        2.27791        0.15487
C          4.65287        2.66347        0.29937
H          4.76410        3.73388        0.43854
C          3.33313        2.12038        0.29029
H          2.50986        2.81446        0.43500
H         -2.43350        1.39836       -0.13882
H         -3.01498       -1.60047        0.15944
