38
COMP77_420001.log	Energy: -2246782.0111796
C          2.11693        1.28546        0.32041
C          0.80583        0.75479        0.67758
C          0.46825       -0.04894        1.72838
Cl         1.56908       -0.64138        2.92309
C         -0.92029       -0.36862        1.79005
O         -1.49203       -1.14609        2.73059
C         -1.64549        0.21788        0.78100
S         -0.60304        1.14732       -0.25539
C         -3.07325        0.08145        0.58686
C         -3.80620        0.70743       -0.35543
C         -5.22741        0.48865       -0.56687
C         -5.93846       -0.67842       -0.40900
O         -5.45515       -1.88106       -0.03718
C         -7.32439       -0.52250       -0.72596
Cl        -8.45067       -1.82895       -0.61311
C         -7.64669        0.73583       -1.12705
H         -8.62125        1.10235       -1.41501
S         -6.26965        1.76609       -1.13400
C          3.26537        0.61978       -0.04176
C          3.39676       -0.85148       -0.22977
O          2.48334       -1.63807       -0.06462
C          4.74930       -1.28968       -0.65350
C          5.09709       -2.59239       -0.86902
H          4.45869       -3.45950       -0.76945
S          6.74332       -2.73183       -1.34083
C          6.98449       -1.03305       -1.25567
H          7.94060       -0.58205       -1.48316
C          5.84248       -0.38760       -0.87750
C          5.71160        1.07688       -0.71786
O          6.62564        1.85633       -0.91493
C          4.35690        1.51846       -0.29916
C          4.01661        2.82978       -0.13710
H          4.66322        3.68459       -0.28223
S          2.38251        3.00303        0.33928
H         -0.80401       -1.49566        3.31455
H         -3.56005       -0.56409        1.31564
H         -3.32260        1.42163       -1.02236
H         -4.48878       -1.85638       -0.09529
