32
COMP57_200200.log	Energy: -2607885.1427876
C          1.52284       -0.23056       -0.28024
C          0.17689        0.31323       -0.31411
C         -0.15582        1.62990       -0.50564
H          0.55985        2.41614       -0.71442
C         -1.55035        1.85220       -0.41967
Cl        -2.23534        3.43055       -0.63747
C         -2.29642        0.72503       -0.16411
S         -1.24267       -0.65043       -0.02768
C         -3.73678        0.63868       -0.03701
C         -4.41612       -0.49608        0.21217
C         -5.85280       -0.65718        0.35095
C         -6.92326        0.20297        0.24622
Cl        -6.81356        1.89512       -0.12325
C         -8.19238       -0.40252        0.46311
H         -9.12657        0.14235        0.41349
C         -8.08495       -1.73176        0.73476
H         -8.88139       -2.43347        0.93893
S         -6.44807       -2.25199        0.72827
C          2.01139       -1.49392       -0.52320
Cl         1.04598       -2.86030       -0.95262
N          3.35255       -1.67101       -0.42865
C          3.93181       -0.54911       -0.10674
S          2.86821        0.79856        0.11770
C          5.36801       -0.41054        0.06320
S          6.44102       -1.75716       -0.15224
C          7.75645       -0.71504        0.22345
H          8.77990       -1.05913        0.24200
C          7.28427        0.53910        0.47570
Cl         8.28429        1.88443        0.89399
N          5.93961        0.71652        0.38664
H         -4.25819        1.58106       -0.15721
H         -3.85432       -1.42220        0.33049
