27
COMP12_420000.log	Energy: -1804881.2181177
C          2.76905       -0.59568       -0.56804
C          1.44822       -0.06182       -0.35845
C          1.07133        1.20623        0.04917
O          1.82265        2.25641        0.36834
C         -0.35548        1.34478        0.08540
Cl        -1.10075        2.81624        0.57983
C         -1.03722        0.22195       -0.28839
S          0.05591       -1.05654       -0.70020
C         -2.48232        0.02577       -0.37733
S         -3.41697        0.80342       -1.61385
C         -4.87668        0.07515       -1.05211
H         -5.81754        0.28226       -1.54361
C         -4.66055       -0.72847        0.02871
O         -5.56213       -1.45088        0.72787
C         -3.28135       -0.75562        0.41083
Cl        -2.72790       -1.67673        1.75893
C          3.22732       -1.52795       -1.42118
C          4.66747       -1.81373       -1.29938
C          5.31273       -1.11547       -0.36214
H          6.35771       -1.10594       -0.08736
S          4.14820       -0.08499        0.48661
O          4.42340        1.33928        0.23254
O          3.94450       -0.52109        1.85851
H          2.78284        2.07098        0.29599
H         -6.44075       -1.31023        0.35599
H          2.61027       -2.01355       -2.16836
H          5.15782       -2.52592       -1.95330
