38
COMP51_200020.log	Energy: -2174054.0276090
C          2.15320       -0.47326        0.12413
C          0.71437       -0.27119        0.06916
C         -0.03375        0.85869        0.22059
Cl         0.66582        2.40736        0.55502
C         -1.46160        0.64682        0.12635
C         -2.53717        1.53976        0.22194
O         -2.38294        2.87753        0.43236
C         -2.24331        3.64098       -0.76373
C         -3.82265        1.01737        0.12201
S         -5.27554        1.97974        0.24132
C         -6.25264        0.56855       -0.02088
H         -7.33043        0.64985       -0.04920
C         -5.53067       -0.56342       -0.17444
Cl        -6.28733       -2.09681       -0.46714
C         -4.10002       -0.35525       -0.08822
C         -3.02375       -1.24697       -0.18619
O         -3.17898       -2.58355       -0.40523
C         -3.32650       -3.35483        0.78475
C         -1.74117       -0.72406       -0.08416
S         -0.29254       -1.68191       -0.22557
C          2.78999       -1.66030        0.39959
H          2.28279       -2.58117        0.66391
N          4.14881       -1.64871        0.34347
C          4.57818       -0.45887        0.02165
S          3.34965        0.73851       -0.22678
C          5.98667       -0.12032       -0.10955
S          7.22648       -1.31007        0.15378
C          8.39879       -0.09787       -0.19097
H          9.45776       -0.31229       -0.16887
C          7.78371        1.08574       -0.47223
H          8.29233        2.00864       -0.72143
N          6.41620        1.06898       -0.42570
H         -2.13871        4.67994       -0.44970
H         -3.12914        3.53390       -1.40097
H         -1.35074        3.33698       -1.32140
H         -3.42860       -4.39160        0.46272
H         -4.22309       -3.05465        1.33773
H         -2.44498       -3.25239        1.42891
