49
COMP95_000001.log	Energy: -942958.5813190
C         -0.53913       -0.28978       -0.33518
C          0.94336       -0.34796       -0.46790
C          1.75571        0.21269        0.51237
C          3.13223        0.05202        0.39454
N          4.14531        0.50193        1.22396
C          4.00875        1.29857        2.41724
C          5.35834        0.09212        0.70074
C          6.64318        0.31464        1.19633
C          7.70755       -0.21332        0.47778
H          8.71942       -0.05825        0.84027
C          7.50372       -0.94102       -0.70378
C          6.22194       -1.15644       -1.19066
C          5.13555       -0.63761       -0.48598
C          3.70270       -0.66463       -0.68353
C          2.87294       -1.22526       -1.65165
C          1.49968       -1.07411       -1.53503
C         -1.18869       -1.53994       -0.16487
C         -2.54117       -1.63550        0.02529
C         -3.16154       -2.97497        0.21300
O         -2.54110       -4.01680        0.19458
N         -4.53554       -2.96314        0.41882
H         -4.97079       -3.86905        0.54948
C         -5.39031       -1.86833        0.46549
O         -6.57977       -2.01377        0.65402
C         -4.74002       -0.54446        0.26965
C         -5.51003        0.59544        0.29598
H         -6.57823        0.50522        0.46068
C         -4.90502        1.84844        0.10857
C         -3.54738        1.94536       -0.10185
C         -2.95483        3.29076       -0.30435
O         -3.58960        4.32532       -0.27762
N         -1.59269        3.28863       -0.54388
H         -1.17399        4.19240       -0.73111
C         -0.71296        2.20985       -0.62304
O          0.44327        2.41500       -0.92048
C         -1.31027        0.86791       -0.33901
C         -2.72209        0.78973       -0.13063
C         -3.34120       -0.46764        0.05777
H          1.31112        0.76517        1.33349
H          2.95243        1.47749        2.61899
H          4.50553        2.26797        2.29689
H          4.44323        0.78226        3.28048
H          6.80914        0.87587        2.11067
H          8.35920       -1.33946       -1.23994
H          6.06614       -1.71799       -2.10740
H          3.29429       -1.77689       -2.48673
H          0.84136       -1.50619       -2.28286
H         -0.59550       -2.44882       -0.16697
H         -5.49143        2.76092        0.12402
