34
COMP72_130001.log	Energy: -1767298.1449652
C         -1.09322        1.15369        0.38144
C          0.18461        0.45763        0.43780
C          0.50782       -0.63994        1.18114
F         -0.32914       -1.24894        2.00001
C          1.85418       -1.07556        1.03839
C          2.38144       -2.18393        1.76333
N          2.79762       -3.08788        2.35735
C          2.56727       -0.27116        0.16793
S          1.56570        0.98040       -0.47090
C          3.95714       -0.40101       -0.24281
S          4.65840       -1.95033       -0.54890
C          6.17931       -1.26849       -0.96963
H          7.01959       -1.88737       -1.24722
C          6.13882        0.08563       -0.88407
F          7.16421        0.88527       -1.14336
C          4.87670        0.60697       -0.47134
C          4.64342        2.00101       -0.28871
N          4.46553        3.13762       -0.14716
C         -2.34882        0.64723        0.13320
C         -2.66600       -0.76161       -0.23114
O         -1.82476       -1.63373       -0.34451
C         -4.10702       -1.01774       -0.46441
C         -4.62355       -2.23999       -0.78797
H         -4.07655       -3.16356       -0.91889
S         -6.32933       -2.16970       -0.97498
C         -6.37003       -0.48977       -0.62000
H         -7.29737        0.06650       -0.61237
C         -5.11906       -0.00505       -0.36669
C         -4.80836        1.40236       -0.03624
O         -5.65182        2.27686        0.03326
C         -3.36421        1.66174        0.19725
C         -2.86305        2.89962        0.47620
H         -3.42591        3.81903        0.56403
S         -1.16534        2.86308        0.68485
