37
COMP27_330400.log	Energy: -1530279.8499066
C          3.22405        0.05215        0.23417
C          1.82200        0.42024        0.02613
C          1.32296        1.63715       -0.38435
C          2.14218        2.74230       -0.76561
N          2.80859        3.63171       -1.09322
C         -0.10777        1.66693       -0.44684
C         -0.83213        2.82249       -0.86047
N         -1.43688        3.75593       -1.18960
C         -0.68778        0.46419       -0.08656
S          0.53533       -0.69227        0.31155
C         -2.07612        0.04139       -0.00882
C         -3.14833        0.84526       -0.14254
C         -4.53679        0.42329       -0.05536
C         -5.12098       -0.78221        0.29049
C         -4.40110       -1.95226        0.66910
N         -3.80571       -2.89957        0.97438
C         -6.55657       -0.73979        0.24423
C         -7.39955       -1.84946        0.56003
N         -8.08940       -2.74434        0.81577
C         -7.03237        0.48605       -0.13019
H         -8.06766        0.77581       -0.24174
S         -5.76346        1.59228       -0.42819
C          3.77427       -1.15536       -0.31673
N          3.10782       -2.06122       -1.02195
S          4.18018       -3.22829       -1.41702
N          5.52185       -2.62418       -0.71185
C          5.16617       -1.48069       -0.13764
C          6.02396       -0.61309        0.60130
H          7.07220       -0.86257        0.72816
C          5.47376        0.50900        1.13117
O          6.13556        1.43766        1.86903
C          4.07190        0.84530        0.96813
O          3.62238        1.95015        1.57616
H         -2.21851       -1.01758        0.18324
H         -3.00594        1.90400       -0.33454
H          7.07310        1.21836        1.93174
H          4.37572        2.42645        1.95781
