33
COMP47_230001.log	Energy: -1956640.1600817
C          3.45625        0.33706        0.00821
C          2.06812        0.77151       -0.03030
C          1.56203        2.06223       -0.07845
C          2.33673        3.25849       -0.10514
N          2.94988        4.24254       -0.12707
C          0.13615        2.09489       -0.09955
Cl        -0.74545        3.57684       -0.15727
C         -0.44678        0.85425       -0.06978
S          0.77026       -0.38001       -0.01210
C         -1.86668        0.56471       -0.08056
C         -2.39578       -0.67205       -0.08078
C         -3.80715       -1.01998       -0.08253
C         -4.95860       -0.28685        0.08107
Cl        -5.03581        1.41208        0.37143
C         -6.15478       -1.07294        0.01155
C         -7.47419       -0.54496        0.15349
N         -8.54998       -0.12997        0.26713
C         -5.89365       -2.39929       -0.20351
H         -6.61658       -3.19732       -0.29569
S         -4.21748       -2.69850       -0.32193
C          3.98541       -0.93330        0.04076
C          3.50318       -2.34342        0.04774
O          2.37982       -2.79123        0.02640
N          4.66804       -3.11195        0.08607
H          4.64630       -4.12187        0.10101
C          5.86203       -2.37731        0.10803
O          6.97441       -2.83818        0.14379
C          5.40187       -0.96476        0.07738
C          5.98312        0.26002        0.07481
H          7.03371        0.51562        0.09762
S          4.78188        1.48996        0.02513
H         -2.50565        1.43958       -0.09309
H         -1.72392       -1.52976       -0.08742
