46
COMP67_400003.log	Energy: -1429266.9487012
C         -1.62831        0.71261       -0.19032
C         -0.38389        0.00533       -0.34812
C         -0.32480       -1.35518       -0.59015
H         -1.21151       -1.96006       -0.75398
C          0.98801       -1.85980       -0.55258
O          1.34145       -3.15314       -0.75661
C          1.94427       -0.89994       -0.27615
S          1.20954        0.65402       -0.08409
C          3.36673       -1.14311       -0.19601
C          4.32266       -0.20149       -0.04330
C          5.73721       -0.47844        0.10676
C          6.34132       -1.57199        0.69181
O          5.71204       -2.61922        1.27425
C          7.76506       -1.51171        0.68250
H          8.39085       -2.29014        1.10033
C          8.22580       -0.37087        0.10139
H          9.25564       -0.07553       -0.04396
S          6.94997        0.65256       -0.43590
C         -2.88638        0.15878       -0.11011
C         -3.58090       -1.12006       -0.15180
O         -3.20797       -2.24997       -0.38822
N         -4.95099       -0.74684        0.14748
C         -6.09404       -1.55758        0.23011
O         -7.18587       -1.09938        0.47063
O         -5.81496       -2.83364        0.02050
C         -6.94032       -3.71300        0.09033
C         -5.06120        0.63018        0.35907
H         -6.02046        1.05540        0.61266
C         -3.84148        1.17856        0.20054
C         -3.15894        2.45973        0.30134
O         -3.56386        3.57774        0.47848
N         -1.76725        2.09757        0.06265
C         -0.81209        3.08153       -0.28094
O         -0.05270        2.98148       -1.21235
O         -0.88364        4.10145        0.55717
C         -0.05957        5.22116        0.22291
H          0.54752       -3.67766       -0.91396
H          3.64317       -2.18730       -0.32803
H          4.03172        0.84920       -0.02396
H          4.77833       -2.39250        1.39383
H         -6.53378       -4.70708       -0.08769
H         -7.67523       -3.45248       -0.67436
H         -7.40816       -3.65646        1.07552
H         -0.29049        5.97808        0.97024
H         -0.29832        5.58360       -0.77920
H          0.99541        4.94173        0.26706
