52
COMP81_000001.log	Energy: -1338941.0726016
C         -0.36491        0.12839        0.12185
C         -1.83326        0.16617        0.09172
C         -2.67545       -0.85611       -0.20467
H         -2.31209       -1.83708       -0.48782
C         -4.07042       -0.50023       -0.15568
C         -5.18887       -1.30608       -0.41281
C         -5.09333       -2.75654       -0.80051
C         -6.42828       -0.68510       -0.28848
S         -7.97376       -1.47026       -0.55178
C         -8.81995        0.00628       -0.18380
H         -9.90125        0.02082       -0.21798
C         -7.99920        1.03404        0.12036
H         -8.36640        2.02142        0.37226
C         -6.59965        0.67689        0.07155
C         -5.48040        1.48339        0.32434
C         -5.57437        2.93489        0.70912
C         -4.24155        0.86311        0.19811
S         -2.69829        1.64850        0.46053
C          0.40135        1.24046       -0.24305
C          1.79272        1.20771       -0.23356
C          2.46242        0.04380        0.14924
C          3.87656       -0.38039        0.23368
C          3.81652       -1.82878        0.70664
O          4.70880       -2.60677        0.97906
N          2.48540       -2.13576        0.83620
H          2.18119       -3.03656        1.16977
C          1.66689       -1.06641        0.50626
C          0.28747       -1.05010        0.51019
C          5.04826        0.27276       -0.01558
C          5.12345        1.77399       -0.27271
O          4.24882        2.61774       -0.27113
N          6.44801        2.06176       -0.47842
H          6.76367        3.00361       -0.64733
C          7.24985        0.93220       -0.39456
C          8.61836        0.86703       -0.58342
C          9.22643       -0.38271       -0.47962
H         10.29970       -0.46803       -0.62050
C          8.46803       -1.51599       -0.20276
C          7.08932       -1.43248       -0.01262
C          6.45099       -0.19262       -0.09746
H         -4.05981       -3.10135       -0.86674
H         -5.56494       -2.93026       -1.77524
H         -5.61102       -3.39064       -0.07071
H         -6.60745        3.28153        0.77116
H         -5.05366        3.56649       -0.02066
H         -5.10511        3.10989        1.68477
H         -0.09656        2.15083       -0.56225
H          2.35268        2.08545       -0.51397
H         -0.27892       -1.91996        0.82743
H          9.19349        1.75961       -0.80912
H          8.95216       -2.48413       -0.12675
H          6.51867       -2.31864        0.21532
