32
COMP19_000000.log	Energy: -1206965.6323093
C          2.54540       -0.72284       -0.08865
C          1.13210       -0.47334       -0.07328
C          0.49908        0.75332       -0.10011
C         -0.90351        0.62740       -0.06604
C         -1.32299       -0.68414       -0.01738
S         -0.01870       -1.79791       -0.00500
C         -2.76619       -0.71279        0.01623
C         -3.23359        0.58062       -0.01151
C         -2.08855        1.57934       -0.06479
C         -2.07692        2.48291        1.17972
C         -2.13241        2.42366       -1.34890
C         -4.65057        0.65009        0.02453
C         -5.21566       -0.59400        0.07822
H         -6.26725       -0.84362        0.11466
S         -4.03660       -1.86856        0.08662
C          3.27073       -1.85090       -0.18842
C          4.72638       -1.64372       -0.13200
C          5.11680       -0.37512        0.01232
H          6.10897        0.04880        0.07168
S          3.68786        0.67525        0.09658
O          3.60814        1.54563       -1.07163
O          3.54492        1.25627        1.42611
H          1.03841        1.69218       -0.15372
H         -2.04390        1.88596        2.09569
H         -2.97628        3.10801        1.20479
H         -1.20333        3.14331        1.16528
H         -2.13754        1.78459       -2.23667
H         -1.26025        3.08401       -1.40159
H         -3.03297        3.04731       -1.36454
H         -5.23039        1.56581        0.01240
H          2.84087       -2.83926       -0.30597
H          5.41754       -2.47559       -0.20853
