34
COMP62_220000.log	Energy: -2203321.9343026
C         -2.51077       -0.40782       -0.30575
C         -1.09848       -0.71466       -0.10896
C         -0.50971       -1.67685        0.67146
Cl        -1.37713       -2.77703        1.67460
C          0.91525       -1.62257        0.63634
Cl         1.92219       -2.69160        1.53585
C          1.39406       -0.61778       -0.16264
S          0.09480        0.26828       -0.87883
C          2.78582       -0.27457       -0.44629
S          3.76809       -1.27146       -1.47128
C          5.12030       -0.22745       -1.30092
H          6.05972       -0.44342       -1.78927
C          4.83536        0.83681       -0.50206
Cl         5.96974        2.07919       -0.12004
C          3.49254        0.81380       -0.00912
Cl         2.84693        2.01710        1.03778
C         -3.14013        0.79019       -0.13413
C         -2.93735        2.15345        0.34798
O         -1.95948        2.76339        0.72850
N         -4.24852        2.71383        0.27249
C         -4.52798        4.08556        0.63411
C         -5.15885        1.79465       -0.19913
H         -6.20281        2.06246       -0.30185
C         -4.52474        0.62227       -0.46108
C         -4.73321       -0.75614       -0.88735
O         -5.70259       -1.36281       -1.29176
N         -3.43532       -1.33834       -0.75841
C         -3.17383       -2.68373       -1.22481
H         -3.59873        4.51001        1.01818
H         -5.29473        4.13422        1.41292
H         -4.85385        4.66463       -0.23567
H         -3.93123       -2.92283       -1.97336
H         -3.24046       -3.41079       -0.41150
H         -2.17983       -2.73777       -1.67511
