32
COMP51_400010.log	Energy: -1547967.8810836
C          1.48240       -0.51121       -0.19104
C          0.03711       -0.39788       -0.11613
C         -0.73042        0.71669       -0.28574
O         -0.31927        1.97518       -0.55881
C         -2.14536        0.47092       -0.16059
C         -3.18025        1.39672       -0.28117
H         -2.96332        2.43964       -0.48561
C         -4.47670        0.92803       -0.12843
S         -5.95255        1.86538       -0.22474
C         -6.91411        0.43689        0.08878
H         -7.99238        0.51798        0.13210
C         -6.16532       -0.67819        0.25502
O         -6.58558       -1.94217        0.50983
C         -4.74616       -0.43597        0.13615
C         -3.71076       -1.36224        0.25167
H         -3.92698       -2.40619        0.45157
C         -2.41488       -0.89282        0.10106
S         -0.94181       -1.83190        0.20260
C          2.23011       -1.53796       -0.70854
H          1.81065       -2.42444       -1.16932
N          3.58575       -1.39648       -0.64058
C          3.90644       -0.26713       -0.07911
S          2.55988        0.70257        0.44789
C          5.27290        0.18863        0.11757
S          6.62636       -0.77590       -0.39059
C          7.66985        0.45832        0.20224
H          8.74468        0.36856        0.13556
C          6.93818        1.48192        0.72626
H          7.35097        2.38134        1.16574
N          5.57912        1.32566        0.67679
H          0.62158        1.97919       -0.78360
H         -7.54854       -1.95520        0.56135
