36
COMP62_000002.log	Energy: -1144061.2427402
C          1.11579        0.53459       -0.00130
C         -0.20948       -0.01292       -0.01197
C         -0.49402       -1.35374       -0.17346
H          0.28570       -2.09962       -0.30000
C         -1.87639       -1.62866       -0.13688
H         -2.29395       -2.62488       -0.22652
C         -2.64749       -0.50436        0.05279
S         -1.66935        0.91929        0.18209
C         -4.09470       -0.41021        0.15134
S         -5.11859       -1.64058       -0.52838
C         -6.54040       -0.82382       -0.00286
H         -7.51401       -1.24763       -0.20666
C         -6.24695        0.33621        0.65112
H         -6.99941        0.99857        1.06177
C         -4.84771        0.57362        0.74114
H         -4.41215        1.43062        1.24291
C          2.33076       -0.11397       -0.06861
C          2.90966       -1.43410       -0.18234
O          2.45688       -2.56279       -0.27952
N          4.30464       -1.13619       -0.13146
O          5.27097       -2.07136       -0.35907
C          5.47856       -2.87184        0.80793
C          4.57768        0.20778       -0.05188
H          5.60033        0.55651       -0.03837
C          3.38605        0.86126       -0.00389
C          2.80201        2.18876        0.12006
O          3.24810        3.30963        0.20989
N          1.40462        1.88635        0.08114
O          0.45145        2.84025        0.27989
C          0.25053        3.61132       -0.91263
H          6.26493       -3.57391        0.52813
H          4.56457       -3.41276        1.06505
H          5.80815       -2.25037        1.64816
H         -0.54588        4.31133       -0.65834
H         -0.06414        2.96468       -1.73836
H          1.16532        4.15158       -1.16573
