29
COMP21_100210.log	Energy: -1905013.9333208
C          1.94754        0.01995       -0.06565
C          0.47975        0.06269       -0.10386
C         -0.37688       -0.59947        0.70523
F          0.01171       -1.41237        1.68751
C         -1.76976       -0.37552        0.44563
C         -2.87024       -0.92002        1.10536
H         -2.73375       -1.61114        1.93023
C         -4.12693       -0.54328        0.65763
S         -5.67474       -1.06783        1.29272
C         -6.52815       -0.09069        0.12457
H         -7.60818       -0.06889        0.10255
C         -5.68587        0.58103       -0.68354
F         -6.07241        1.40042       -1.66424
C         -4.28860        0.35874       -0.42268
C         -3.18767        0.90345       -1.08065
H         -3.32322        1.59545       -1.90492
C         -1.92999        0.52544       -0.63425
S         -0.38799        1.05109       -1.27187
C          2.68518        1.21714        0.21698
N          2.15425        2.41559        0.45713
S          3.40251        3.42330        0.71927
N          4.65222        2.39639        0.55073
C          4.11848        1.20617        0.27424
C          4.83419       -0.00041        0.05467
H          5.91586       -0.01213        0.10482
C          4.12211       -1.12925       -0.21553
Cl         4.99357       -2.60538       -0.48831
C          2.67699       -1.12518       -0.28635
Cl         1.86601       -2.60222       -0.68168
