44
COMP97_220001.log	Energy: -2488990.8942157
C          2.06943       -0.29183        0.09176
C          0.64926       -0.45137        0.47555
C          0.16507       -1.08480        1.57951
Cl         1.17626       -1.76801        2.79917
C         -1.26179       -1.09353        1.63782
Cl        -2.13722       -1.81323        2.93834
C         -1.85497       -0.46992        0.56982
S         -0.63946        0.11324       -0.52822
C         -3.27625       -0.30018        0.33834
C         -3.80418        0.49477       -0.60847
C         -5.21566        0.69693       -0.89341
C         -6.34839       -0.00819       -0.55976
Cl        -6.37416       -1.47025        0.35692
C         -7.54774        0.57275       -1.08110
Cl        -9.11859       -0.09698       -0.82648
C         -7.32279        1.70311       -1.80292
H         -8.05695        2.32404       -2.29525
S         -5.64961        2.07891       -1.85915
C          2.67662       -1.37548       -0.58607
C          3.99312       -1.32824       -0.96713
C          4.59325       -2.49270       -1.67532
O          3.98021       -3.50120       -1.95094
N          5.93378       -2.35075       -2.01110
H          6.35468       -3.13854       -2.49063
C          6.77240       -1.26812       -1.77317
O          7.93190       -1.28569       -2.12666
C          6.14159       -0.11908       -1.06774
C          6.89418        0.99702       -0.78701
H          7.93571        1.01809       -1.08928
C          6.31109        2.08635       -0.11572
C          4.98973        2.04433        0.26573
C          4.41150        3.21146        0.97961
O          5.03199        4.21882        1.24607
N          3.07912        3.07267        1.33399
H          2.66904        3.85471        1.83203
C          2.22226        2.00033        1.11421
O          1.07899        2.05231        1.51229
C          2.81713        0.84177        0.37818
C          4.18537        0.90715       -0.01056
C          4.77747       -0.18430       -0.68678
H         -3.91655       -0.85932        1.01083
H         -3.13280        1.08370       -1.23279
H          2.09454       -2.26451       -0.80595
H          6.88944        2.97454        0.11514
