42
COMP45_000030.log	Energy: -1014627.0209996
C         -1.89653       -1.41679       -0.05692
C         -0.42811       -1.42033        0.01376
C          0.26842       -0.21004       -0.07533
C          1.65765       -0.24546       -0.02483
N          2.60449        0.80313       -0.09451
C          2.37413        2.17158       -0.18741
O          3.24805        3.00639       -0.22597
O          1.07026        2.43541       -0.22389
C          0.71497        3.81731       -0.27321
C          3.89684        0.23941       -0.01338
C          5.14697        0.85503       -0.04280
C          6.26500        0.03485        0.05618
H          7.24990        0.49130        0.03423
C          6.15401       -1.35514        0.18221
C          4.90553       -1.95797        0.21064
C          3.77104       -1.15379        0.11160
C          2.35644       -1.45875        0.10482
C          1.65433       -2.65768        0.20165
C          0.27260       -2.63393        0.15989
C         -2.82398       -0.40508        0.02176
C         -2.86556        1.07131        0.20995
O         -1.97349        1.88530        0.32800
N         -4.22584        1.40558        0.21798
C         -4.71835        2.75583        0.37982
C         -5.08029        0.31160        0.03734
O         -6.28629        0.37658        0.00282
C         -4.17127       -0.85046       -0.08856
C         -4.31150       -2.18464       -0.26329
H         -5.21607       -2.76649       -0.37201
S         -2.75553       -2.92924       -0.29998
H         -0.26714        0.72293       -0.16742
H         -0.37238        3.82429       -0.22908
H          1.07686        4.26925       -1.19955
H          1.14341        4.34829        0.57949
H          5.23843        1.92718       -0.14001
H          7.05104       -1.96173        0.25711
H          4.80857       -3.03518        0.30904
H          2.18303       -3.59905        0.31420
H         -0.26833       -3.57065        0.25443
H         -3.85634        3.40988        0.51255
H         -5.37010        2.81575        1.25496
H         -5.28516        3.06053       -0.50369
