34
COMP57_220400.log	Energy: -2702254.1239045
C         -2.39711        0.04664        0.42835
C         -1.03132        0.53114        0.31720
C         -0.55123        1.81368        0.32681
Cl        -1.55202        3.20374        0.50453
C          0.86894        1.88841        0.19941
Cl         1.72351        3.38707        0.19826
C          1.48230        0.66350        0.10118
S          0.28607       -0.59740        0.12566
C          2.90570        0.41366       -0.00781
C          3.46400       -0.80816       -0.07750
C          4.87608       -1.13369       -0.18369
C          6.02095       -0.37140       -0.23822
Cl         6.07551        1.35229       -0.18975
C          7.21438       -1.15306       -0.34099
Cl         8.79616       -0.46777       -0.42931
C          6.97540       -2.49194       -0.36325
H          7.70402       -3.28614       -0.43517
S          5.29595       -2.82234       -0.26037
C         -2.88909       -0.84592        1.35790
O         -2.21613       -1.41243        2.37224
N         -4.19766       -1.18250        1.23657
C         -4.72931       -0.56041        0.21980
S         -3.67678        0.48425       -0.66852
C         -6.12489       -0.71076       -0.16063
S         -7.19120       -1.74618        0.72799
C         -8.45198       -1.30353       -0.36203
H         -9.45109       -1.70358       -0.26397
C         -7.97079       -0.42157       -1.29377
O         -8.64048        0.15586       -2.31055
N         -6.65657       -0.09037       -1.17684
H          3.51944        1.30581       -0.02942
H          2.81044       -1.68011       -0.05364
H         -1.32449       -1.03992        2.41279
H         -9.55605       -0.14662       -2.29825
