31
COMP78_000001.log	Energy: -1323785.8275919
C          0.57917        0.50142       -0.00740
C          1.69865       -0.43003       -0.01461
C          3.03391       -0.06339       -0.00677
O          3.46482        1.22220        0.02533
C          4.84203        1.36427       -0.31532
C          5.67294        0.31801        0.40505
O          5.29872       -0.98598       -0.01440
C          3.94745       -1.15457       -0.02047
C          3.30841       -2.35338       -0.05222
H          3.76632       -3.33227       -0.06535
S          1.59949       -2.18314       -0.05393
C         -0.80556        0.33333       -0.00541
C         -1.55571       -0.93506       -0.00151
O         -1.03887       -2.04235       -0.00429
C         -3.03508       -0.80364        0.00745
C         -3.89027       -1.86791        0.01395
H         -3.62386       -2.91581        0.01362
S         -5.53017       -1.35379        0.02307
C         -5.08309        0.30546        0.01821
H         -5.82292        1.09393        0.02166
C         -3.72584        0.45004        0.00979
C         -2.99620        1.73251        0.00407
O         -3.55184        2.81714        0.00538
C         -1.51943        1.58847       -0.00188
C         -0.69769        2.66956        0.00034
H         -1.00287        3.70718        0.00507
S          0.94956        2.22110       -0.00107
H          5.12488        2.37397       -0.01342
H          4.96246        1.25974       -1.40051
H          5.53754        0.41747        1.49027
H          6.73161        0.43037        0.16376
