43
COMP41_400031.log	Energy: -1643673.5323757
C          2.83493       -0.72004        0.21383
C          1.41889       -0.41695        0.13780
C          0.39381       -1.31594        0.00336
O          0.49653       -2.64640       -0.18873
C         -0.91305       -0.70449        0.03030
C         -2.17053       -1.31865       -0.04258
C         -2.34492       -2.79990        0.10518
O         -1.89737       -3.44977        1.01482
O         -3.12809       -3.29645       -0.86325
C         -3.43675       -4.68629       -0.74020
C         -3.28837       -0.49120       -0.11532
S         -4.95044       -1.01437       -0.28562
C         -5.49962        0.63846       -0.22667
H         -6.55364        0.85379       -0.34573
C         -4.49780        1.53907       -0.09756
O         -4.60115        2.88662       -0.11286
C         -3.19144        0.91931        0.00110
C         -1.94068        1.52331        0.16794
C         -1.78609        2.97198        0.52302
O         -2.33447        3.51257        1.44859
O         -0.89155        3.56614       -0.27867
C         -0.57536        4.91984        0.05140
C         -0.81241        0.70317        0.12152
S          0.84489        1.24489        0.19498
C          3.94459        0.00866       -0.13098
C          4.25300        1.33029       -0.74277
O          3.52873        2.22442       -1.10654
N          5.65453        1.35516       -0.81896
H          6.15709        2.14765       -1.19286
C          6.29825        0.21859       -0.31954
O          7.48969        0.03473       -0.28400
C          5.17690       -0.65179        0.12625
C          5.05135       -1.88336        0.67367
H          5.81881       -2.59222        0.95137
S          3.37861       -2.24219        0.91810
H          1.39790       -2.87937       -0.45243
H         -4.09134       -4.91545       -1.57997
H         -3.94201       -4.88214        0.20835
H         -2.52212       -5.28168       -0.78887
H         -5.53188        3.13678       -0.14863
H          0.17205        5.22911       -0.67748
H         -0.17284        4.98094        1.06520
H         -1.46915        5.54396       -0.01900
