33
COMP27_400000.log	Energy: -1298836.5580380
C          2.78431        0.70864        0.15227
C          1.50838        0.00042        0.05203
C          1.28104       -1.34703       -0.06059
H          2.07977       -2.07675       -0.09838
C         -0.10010       -1.66999       -0.12383
O         -0.60016       -2.92807       -0.22709
C         -0.93647       -0.57932       -0.06641
S          0.00162        0.87824        0.07468
C         -2.38030       -0.62037       -0.12158
C         -3.21204        0.44179       -0.09300
C         -4.66158        0.34471       -0.07099
C         -5.44224       -0.61546        0.53506
O         -4.99608       -1.67250        1.25581
C         -6.84298       -0.39597        0.38361
H         -7.59112       -1.05957        0.79871
C         -7.11102        0.73329       -0.32580
H         -8.08015        1.13322       -0.58971
S         -5.67669        1.55153       -0.81719
C          4.04844        0.03384       -0.01560
N          4.23373       -1.26308       -0.26590
S          5.84028       -1.50100       -0.36633
N          6.37144        0.01044       -0.10035
C          5.28854        0.76843        0.07983
C          5.29387        2.16714        0.34231
H          6.23551        2.69895        0.41039
C          4.08591        2.77716        0.49985
H          4.03878        3.84234        0.70295
C          2.85761        2.05799        0.40850
H          1.94012        2.62022        0.55652
H          0.12980       -3.55479       -0.28458
H         -2.78815       -1.62312       -0.23795
H         -2.79036        1.44691       -0.06811
H         -4.05203       -1.54622        1.43157
