31
COMP27_000200.log	Energy: -1781240.3871883
C         -2.17259       -0.10078        0.16096
C         -0.72866       -0.22320        0.40253
C         -0.09515       -0.99945        1.33862
H         -0.63135       -1.62522        2.04180
C          1.31435       -0.87896        1.30630
H          1.97659       -1.38792        1.99676
C          1.76209       -0.02164        0.32940
S          0.42778        0.66957       -0.53360
C          3.12509        0.33958       -0.03095
C          4.20699       -0.39086        0.28907
C          5.57779       -0.00512       -0.01045
C          6.08786        1.22354       -0.35141
H          5.48157        2.12060       -0.40502
C          7.48869        1.20340       -0.59213
H          8.06629        2.07754       -0.86889
C          8.03525       -0.03550       -0.42355
H          9.06970       -0.32894       -0.53661
S          6.84594       -1.19578        0.02671
C         -2.78565        1.20021        0.13237
N         -2.15035        2.35864        0.30976
S         -3.27374        3.52564        0.18756
N         -4.60177        2.62704       -0.08506
C         -4.19498        1.35726       -0.09034
C         -5.02240        0.21974       -0.27953
H         -6.08681        0.33626       -0.43962
C         -4.43334       -1.00705       -0.25005
Cl        -5.44235       -2.40181       -0.48280
C         -3.01161       -1.17554       -0.04177
Cl        -2.37263       -2.78815       -0.09247
H          3.25251        1.25656       -0.60274
H          4.06884       -1.34398        0.79608
