36
COMP29_000020.log	Energy: -1323494.2801540
C         -2.31537       -1.02160        0.12573
C         -0.88804       -0.71749        0.04485
C         -0.25410        0.49802        0.18358
C          1.14701        0.39332        0.04360
C          1.56997       -0.89214       -0.18161
S          0.27097       -2.00239       -0.25979
C          3.02187       -0.92177       -0.25772
C          3.50484        0.34760       -0.08485
C          2.36086        1.34264        0.11398
O          2.42908        2.26698       -0.91838
C          1.33887        3.16752       -1.00419
O          2.43298        2.06314        1.31929
C          2.38139        1.29289        2.50086
C          4.91674        0.42391       -0.14649
C          5.47118       -0.80737       -0.36496
H          6.51880       -1.05824       -0.45918
S          4.27855       -2.06319       -0.50313
C         -3.31460        0.00413       -0.04784
N         -3.09168        1.29701       -0.28689
S         -4.54837        2.01146       -0.40434
N         -5.51873        0.73049       -0.16164
C         -4.71944       -0.32169        0.02284
C         -5.14880       -1.65771        0.26198
H         -6.20763       -1.88279        0.31205
C         -4.18315       -2.60569        0.42125
H         -4.46308       -3.63761        0.60856
C         -2.79288       -2.28977        0.36025
H         -2.08684       -3.09956        0.52135
H         -0.79497        1.41298        0.38176
H          1.63303        3.92571       -1.73155
H          1.13968        3.64537       -0.03987
H          0.43312        2.66186       -1.36216
H          3.18096        0.54079        2.52649
H          1.41462        0.78617        2.61599
H          2.52094        1.99372        3.32570
H          5.49113        1.33533       -0.03809
