44
COMP92_440001.log	Energy: -1475624.2664151
C          0.77989       -0.25385        0.17885
C         -0.64204       -0.58931        0.26204
C         -1.31138       -1.54398        0.99464
O         -0.80498       -2.55097        1.73591
C         -2.72395       -1.38421        0.98277
O         -3.53421       -2.23827        1.64571
C         -3.16016       -0.31791        0.24160
S         -1.79634        0.52206       -0.45219
C         -4.52432        0.07773       -0.02294
S         -5.89882       -0.83265        0.56468
C         -7.01604        0.26980       -0.16286
H         -8.08131        0.11620       -0.05916
C         -6.37165        1.27363       -0.81409
O         -6.87203        2.33584       -1.50684
C         -4.95138        1.16773       -0.73624
O         -4.11938        2.06287       -1.31749
C          1.07498        1.12916        0.39549
C          2.34322        1.62698        0.36956
C          2.56009        3.07364        0.65240
O          1.66877        3.85212        0.91424
N          3.88357        3.49037        0.59676
H          4.04700        4.47216        0.78855
C          5.01146        2.73394        0.30491
O          6.11445        3.23806        0.29087
C          4.75981        1.29313        0.02719
C          5.82289        0.47618       -0.29085
H          6.82133        0.89768       -0.32802
C          5.58839       -0.87331       -0.57789
C          4.31028       -1.39259       -0.52285
C          4.12024       -2.81372       -0.88003
O          5.00939       -3.57425       -1.20055
N          2.80129       -3.23940       -0.82691
H          2.64139       -4.21771       -1.03926
C          1.68406       -2.54666       -0.40342
O          0.63102       -3.17300       -0.32548
C          1.85904       -1.11080       -0.09778
C          3.19522       -0.58716       -0.17161
C          3.44366        0.78071        0.08091
H         -0.16898       -3.01213        1.14572
H         -2.95896       -2.91207        2.04170
H         -7.83526        2.30624       -1.50557
H         -4.66120        2.73305       -1.75785
H          0.26652        1.81191        0.63307
H          6.39981       -1.53663       -0.85791
