37
COMP46_000010.log	Energy: -861604.6317543
C         -1.52465        1.03293        0.06664
C         -0.06457        0.89505       -0.00531
C          0.54079       -0.34487        0.25461
C          1.91842       -0.44884        0.19332
C          2.78889       -1.66207        0.42749
H          2.65450       -2.07371        1.43516
H          2.55562       -2.46740       -0.27965
C          4.18190       -1.11266        0.21989
C          5.40597       -1.75906        0.30712
C          6.57174       -1.03138        0.06873
H          7.53673       -1.52491        0.13521
C          6.51157        0.32573       -0.25280
C          5.28561        0.97866       -0.34156
C          4.12285        0.25223       -0.10283
C          2.71447        0.66342       -0.11948
C          2.12322        1.89455       -0.38426
C          0.74059        2.00060       -0.32872
C         -2.53455        0.10441        0.01602
C         -2.69365       -1.36573       -0.14828
O         -1.86876       -2.24917       -0.24093
N         -4.07892       -1.58552       -0.16650
C         -4.67832       -2.89436       -0.30600
C         -4.83997       -0.42145       -0.01257
O         -6.04782       -0.38335        0.00949
C         -3.83860        0.66472        0.10546
C         -3.86297        2.01143        0.23927
H         -4.71254        2.67469        0.32266
S         -2.24720        2.61994        0.26449
H         -0.07113       -1.21116        0.48140
H          5.46039       -2.81556        0.55573
H          7.43025        0.87528       -0.43492
H          5.24107        2.03545       -0.59023
H          2.72449        2.76234       -0.63931
H          0.28024        2.95773       -0.55725
H         -3.87047       -3.62012       -0.40419
H         -5.31665       -2.92417       -1.19263
H         -5.28461       -3.12852        0.57288
