48
COMP77_430002.log	Energy: -1929398.5911898
C         -1.09018       -1.62263        0.36925
C          0.18235       -0.98216        0.68188
C          0.45175       -0.08434        1.68867
C         -0.48728        0.40832        2.63812
N         -1.17082        0.84587        3.46708
C          1.82320        0.31949        1.72467
O          2.34273        1.19208        2.60916
C          2.59293       -0.28781        0.76126
S          1.61147       -1.34291       -0.21342
C          4.00988       -0.07558        0.56266
C          4.79543       -0.71852       -0.32365
C          6.19948       -0.39945       -0.53696
C          6.79203        0.84118       -0.52771
O          6.18884        2.02949       -0.33225
C          8.20002        0.79245       -0.79548
C          9.03946        1.94566       -0.84157
N          9.73207        2.87404       -0.88285
C          8.64429       -0.48475       -1.01311
H          9.65794       -0.79024       -1.23030
S          7.38020       -1.63022       -0.89992
C         -2.32070       -1.06122        0.10936
C         -2.60659        0.39862       -0.02879
O         -1.73598        1.24697        0.06221
C         -4.01853        0.71013       -0.30021
C         -4.51340        1.98247       -0.39600
O         -3.81221        3.10290       -0.28343
C         -4.49586        4.34437       -0.31702
S         -6.24800        1.99396       -0.70486
C         -6.28194        0.23316       -0.70193
O         -7.40107       -0.45277       -0.89955
C         -8.61382        0.25638       -1.08731
C         -5.04394       -0.30136       -0.47689
C         -4.75439       -1.73990       -0.41350
O         -5.57935       -2.62114       -0.58351
C         -3.33057       -2.05318       -0.11349
C         -2.85464       -3.32935       -0.03127
H         -3.42430       -4.23859       -0.16689
S         -1.18386       -3.35792        0.33147
H          1.64195        1.54279        3.17718
H          4.44520        0.65795        1.23943
H          4.37627       -1.51458       -0.93905
H          5.22903        1.90308       -0.36745
H         -3.72984        5.10653       -0.18111
H         -5.22906        4.41095        0.49534
H         -4.99141        4.49225       -1.28432
H         -9.38191       -0.50397       -1.22223
H         -8.56459        0.88970       -1.98147
H         -8.85257        0.86624       -0.20769
