62
COMP95_000023.log	Energy: -1275983.8808466
C         -0.00288        0.07351       -0.22540
C         -1.47013       -0.11626       -0.38517
C         -2.13996       -0.96404        0.49090
C         -3.49669       -1.17198        0.26682
N         -4.39529       -1.92680        0.98793
O         -4.04864       -2.75232        2.01967
C         -3.66077       -4.03704        1.52260
C         -5.64285       -1.89344        0.39839
C         -6.82107       -2.53032        0.77923
C         -7.94362       -2.29609       -0.00208
H         -8.88204       -2.77404        0.26247
C         -7.89497       -1.45100       -1.12207
C         -6.71363       -0.82170       -1.48800
C         -5.56422       -1.04487       -0.72740
C         -4.19153       -0.58358       -0.81075
C         -3.49218        0.25227       -1.68338
C         -2.14402        0.47933       -1.46818
C          0.79592       -1.09453       -0.32275
C          2.16388       -1.04440       -0.26064
C          2.94441       -2.30370       -0.36419
O          2.44392       -3.40313       -0.46443
N          4.33356       -2.15395       -0.33824
C          5.11585       -3.36879       -0.48613
O          5.46619       -3.79648       -1.54577
O          5.35188       -3.88300        0.70729
C          6.11978       -5.09203        0.69930
C          5.05330       -0.96407       -0.18643
O          6.26451       -0.98018       -0.14792
C          4.23847        0.27309       -0.08017
C          4.87212        1.48719        0.05607
H          5.95603        1.51772        0.07822
C          4.11097        2.66281        0.16288
C          2.73469        2.60793        0.14437
C          1.97464        3.87477        0.26740
O          2.48920        4.97129        0.31960
N          0.59153        3.72709        0.33188
C         -0.17693        4.92701        0.61333
O         -0.30111        5.38386        1.71074
O         -0.68246        5.39520       -0.51416
C         -1.50913        6.55478       -0.36375
C         -0.15120        2.53918        0.25030
O         -1.34725        2.58494        0.42901
C          0.62866        1.29670       -0.02614
C          2.05193        1.37292        0.00450
C          2.82573        0.19648       -0.11386
H         -1.63784       -1.42238        1.33682
H         -3.39147       -4.61553        2.40735
H         -2.79870       -3.94913        0.85282
H         -4.49396       -4.51568        0.99742
H         -6.85306       -3.16853        1.65569
H         -8.79581       -1.28679       -1.70468
H         -6.68187       -0.16570       -2.35318
H         -3.99681        0.71815       -2.52437
H         -1.59169        1.12991       -2.13850
H          0.31254       -2.05531       -0.46645
H          6.24100       -5.36332        1.74649
H          7.08961       -4.91707        0.22913
H          5.58288       -5.87195        0.15510
H          4.59003        3.63047        0.26534
H         -1.84470        6.80210       -1.36944
H         -0.93138        7.37557        0.06611
H         -2.35864        6.32480        0.28283
