53
COMP99_000031.log	Energy: -1596677.8163536
C         -1.44220       -0.01489       -0.10914
C          0.01661       -0.19865       -0.23523
C          0.97686        0.44256        0.50335
C          2.27555        0.14395        0.03564
C          2.28825       -0.68504       -1.05844
S          0.70875       -1.13828       -1.53920
C          3.65775       -0.87996       -1.48551
C          4.49568       -0.18548       -0.64645
C          3.69046        0.52606        0.42652
C          3.91453        2.04019        0.41280
O          3.07182        2.87228        0.20529
O          5.20092        2.30950        0.66897
C          5.53212        3.69837        0.72546
C          3.93088        0.03880        1.86121
O          3.59890        0.67919        2.82918
O          4.48150       -1.17106        1.90277
C          4.62854       -1.72930        3.21074
C          5.86539       -0.31970       -0.98725
C          6.02641       -1.11780       -2.08401
H          6.94999       -1.39372       -2.57389
S          4.52018       -1.71552       -2.71051
C         -1.90994        1.31582       -0.27199
C         -3.24544        1.61830       -0.24405
C         -3.68043        3.02985       -0.43174
O         -2.91573        3.95758       -0.58511
N         -5.05615        3.22817       -0.42163
H         -5.36564        4.18485       -0.54995
C         -6.06172        2.28266       -0.26240
O         -7.23090        2.60493       -0.28101
C         -5.59406        0.88288       -0.07107
C         -6.51991       -0.11997        0.10098
H         -7.57542        0.12935        0.08961
C         -6.08843       -1.44332        0.29010
C         -4.74498       -1.74493        0.30616
C         -4.33384       -3.15422        0.52685
O         -5.11149       -4.07511        0.66863
N         -2.96495       -3.35359        0.57927
H         -2.66130       -4.29691        0.79213
C         -1.93922       -2.41899        0.46254
O         -0.79416       -2.76518        0.65714
C         -2.36775       -1.02809        0.12265
C         -3.76388       -0.73466        0.12390
C         -4.20714        0.59461       -0.06599
H          0.75650        1.09323        1.34067
H          6.59974        3.73692        0.93829
H          4.96400        4.18997        1.51827
H          5.31268        4.18137       -0.22934
H          5.09745       -2.70051        3.06006
H          3.65158       -1.84325        3.68601
H          5.25843       -1.08727        3.83057
H          6.68291        0.15082       -0.45647
H         -1.19134        2.11083       -0.44336
H         -6.80235       -2.24813        0.42877
