52
COMP81_200010.log	Energy: -1915715.5837458
C         -0.29778        0.01855        0.03451
C         -1.76934       -0.01482        0.02575
C         -2.66501        0.86355        0.54865
Cl        -2.24095        2.28465        1.45165
C         -4.04880        0.50459        0.35434
C         -5.19354        1.18213        0.77047
H         -5.11414        2.11634        1.31653
C         -6.42221        0.61947        0.45862
S         -7.99861        1.26886        0.86169
C         -8.78938       -0.07197        0.08397
H         -9.86863       -0.13257        0.06292
C         -7.91710       -0.95502       -0.44577
Cl        -8.39447       -2.39364       -1.28724
C         -6.53062       -0.60005       -0.25503
C         -5.38566       -1.27917       -0.66772
H         -5.46446       -2.21527       -1.21078
C         -4.15811       -0.71623       -0.35536
S         -2.58433       -1.35884       -0.75942
C          0.43334       -1.13901        0.31534
C          1.82649       -1.13830        0.32301
C          2.52222        0.03798        0.04828
C          3.94463        0.40897       -0.09902
C          3.91879        1.87722       -0.49616
O          4.83974        2.64843       -0.69074
N          2.59725        2.25279       -0.55615
C          2.16240        3.59163       -0.86815
C          1.76145        1.18675       -0.25577
C          0.38100        1.20584       -0.27035
C          5.09840       -0.29677        0.07081
C          5.13931       -1.67738        0.71287
O          4.23447       -2.34440        1.17993
N          6.45489       -2.06901        0.73564
C          6.90427       -3.32083        1.29125
C          7.27392       -1.10481        0.15955
C          8.64240       -1.19253       -0.02333
C          9.28022       -0.12468       -0.65465
H         10.35406       -0.16298       -0.81166
C          8.55191        0.97836       -1.08647
C          7.17255        1.05315       -0.89112
C          6.50784        0.00744       -0.24891
H         -0.09080       -2.05826        0.55744
H          2.36386       -2.04209        0.56259
H          3.05560        4.20363       -0.99674
H          1.55440        3.99625       -0.05238
H          1.57598        3.60370       -1.79331
H         -0.16369        2.10656       -0.52834
H          6.03033       -3.83464        1.69263
H          7.62652       -3.14685        2.09587
H          7.37077       -3.94234        0.51919
H          9.19771       -2.06417        0.30690
H          9.05870        1.80122       -1.58015
H          6.62279        1.92084       -1.21964
