32
COMP72_110001.log	Energy: -1776077.7863402
C          0.98022        1.11104        0.46399
C         -0.30570        0.43484        0.51341
C         -0.63013       -0.69983        1.19542
F          0.20180       -1.39668        1.95042
C         -1.99006       -1.06952        1.05231
F         -2.48942       -2.15132        1.64955
C         -2.72560       -0.21896        0.27561
S         -1.70468        1.06466       -0.31161
C         -4.13118       -0.31297       -0.05714
S         -5.15459       -1.60390        0.51655
C         -6.53810       -0.96735       -0.29406
H         -7.49764       -1.45860       -0.23355
C         -6.23140        0.17020       -0.96532
F         -7.08219        0.89514       -1.68483
C         -4.86621        0.54068       -0.83083
F         -4.36948        1.63032       -1.41771
C          2.23156        0.60431        0.19060
C          2.53648       -0.79086       -0.22682
O          1.69248       -1.65620       -0.36738
C          3.97534       -1.04755       -0.48363
C          4.47972       -2.25958       -0.85910
H          3.92440       -3.17335       -1.02005
S          6.18487       -2.19392       -1.06028
C          6.24077       -0.52902       -0.64186
H          7.17155        0.02116       -0.62276
C          4.99546       -0.04640       -0.35845
C          4.69598        1.35004        0.02442
O          5.54722        2.21515        0.12038
C          3.25615        1.60981        0.27842
C          2.76808        2.84250        0.59792
H          3.34021        3.75379        0.70692
S          1.07122        2.81192        0.81905
