51
COMP79_000030.log	Energy: -1886211.5068919
C         -1.24402        1.76455        0.26119
C          0.14856        1.37581        0.09353
C          0.78548        0.24348        0.53955
C          2.15699        0.25960        0.21990
C          2.55910        1.38615       -0.45701
S          1.26117        2.46822       -0.72559
C          3.97122        1.28184       -0.74987
C          4.44617        0.08680       -0.26414
C          3.32153       -0.69905        0.38904
C          3.59723       -1.05044        1.85193
O          2.87168       -0.79702        2.77700
O          4.76306       -1.69817        1.95626
C          5.08921       -2.15825        3.26856
C          2.96959       -2.00761       -0.33613
O          2.58094       -2.99763        0.23312
O          3.08573       -1.88630       -1.65639
C          2.63290       -3.01164       -2.41194
C          5.82831       -0.10793       -0.51184
C          6.36530        0.95300       -1.18439
H          7.39020        1.08816       -1.50131
S          5.20010        2.19658       -1.52268
C         -2.41274        1.02756        0.19327
C         -2.54128       -0.41120       -0.15476
O         -1.58544       -1.14173       -0.37181
C         -3.93138       -0.91670       -0.22457
C         -4.24994       -2.21710       -0.52538
C         -3.34730       -3.36414       -0.85673
S         -5.96744       -2.42714       -0.48379
C         -6.27382       -0.77885       -0.06166
C         -7.66786       -0.27099        0.13354
C         -5.08739       -0.09943        0.04068
C         -4.97174        1.32757        0.38240
O         -5.93136        2.05116        0.60283
C         -3.57888        1.83725        0.42908
C         -3.28933        3.14659        0.66749
H         -4.00079        3.93812        0.85822
S         -1.60221        3.43006        0.63194
H          0.28213       -0.55236        1.06783
H          6.05911       -2.64511        3.17460
H          4.33505       -2.86799        3.61583
H          5.14486       -1.31945        3.96602
H          2.80994       -2.75220       -3.45470
H          1.56866       -3.18143       -2.23231
H          3.19335       -3.90803       -2.13677
H          6.39391       -0.97768       -0.20365
H         -2.62526       -3.52512       -0.05182
H         -2.76709       -3.14287       -1.75706
H         -3.91450       -4.28486       -1.01802
H         -8.40515       -1.06995        0.01832
H         -7.88772        0.52064       -0.58863
H         -7.77517        0.17301        1.12678
