40
COMP67_100002.log	Energy: -1317107.1275276
C         -2.35107        0.66260        0.00876
C         -0.92036        0.55858        0.29600
C         -0.30346        0.80495        1.48983
H         -0.81385        1.09553        2.39920
C          1.09400        0.61012        1.39705
F          1.89135        0.79589        2.45689
C          1.55950        0.22353        0.16542
S          0.21243        0.09414       -0.92467
C          2.90442       -0.06367       -0.30063
C          4.00525       -0.04147        0.47519
C          5.35239       -0.32253        0.01517
C          5.83298       -0.63588       -1.23121
F          5.04809       -0.73782       -2.31201
C          7.23141       -0.84883       -1.31448
H          7.74465       -1.10166       -2.23322
C          7.82613       -0.69250       -0.09815
H          8.87485       -0.79436        0.14266
S          6.68915       -0.29120        1.13001
C         -3.35152       -0.25818        0.05728
C         -3.61952       -1.64901        0.41536
O         -2.93933       -2.57317        0.79614
N         -5.02932       -1.72790        0.17382
O         -5.78311       -2.80388        0.54055
C         -5.65967       -3.85577       -0.42171
C         -5.58795       -0.53165       -0.20663
H         -6.65491       -0.46042       -0.36640
C         -4.59110        0.38549       -0.30614
C         -4.32720        1.78430       -0.62533
O         -5.00937        2.71096       -0.99768
N         -2.92437        1.87185       -0.35852
O         -2.17803        2.94056       -0.75457
C         -2.18365        3.95661        0.25031
H          3.00029       -0.30955       -1.35312
H          3.90577        0.19933        1.52871
H         -6.30921       -4.64944       -0.05065
H         -4.62599       -4.20657       -0.47194
H         -6.00115       -3.51835       -1.40660
H         -1.56738        4.75775       -0.15929
H         -1.74061        3.57950        1.17840
H         -3.20166        4.31502        0.42390
