27
COMP44_000002.log	Energy: -1238834.6378590
C          0.27578        1.06561       -0.03007
C         -1.09495        0.59598       -0.01068
C         -1.51569       -0.70533       -0.12378
H         -0.82698       -1.53431       -0.24159
C         -2.92898       -0.79507       -0.06131
S         -4.07327       -2.09466       -0.13745
C         -5.38945       -0.97606        0.04619
H         -6.40374       -1.35151        0.06003
C         -4.99274        0.32199        0.15952
H         -5.67575        1.15311        0.28017
C         -3.57346        0.42140        0.09676
S         -2.43537        1.72128        0.17574
C          1.45302        0.36243       -0.10310
C          1.88450       -1.05273       -0.17201
O          1.26368       -2.08952       -0.21605
N          3.28837       -0.96944       -0.15543
O          4.06320       -2.06273       -0.38317
C          4.45555       -2.66705        0.85122
C          3.82762        0.32980       -0.14763
O          4.99888        0.60732       -0.16351
C          2.61536        1.18483       -0.09147
C          2.35931        2.51157       -0.01359
H          3.05267        3.34045        0.01216
S          0.65124        2.77662        0.04058
H          5.06166       -3.52572        0.56026
H          3.57641       -3.00181        1.41005
H          5.05401       -1.97085        1.44660
