30
COMP52_010400.log	Energy: -1624647.7311877
C         -0.73795       -0.11757        0.28883
C          0.65628        0.28500        0.29024
C          1.18973        1.49231        0.65074
H          0.61818        2.33187        1.02601
C          2.59622        1.50554        0.50676
F          3.32371        2.58422        0.81674
C          3.16512        0.34474        0.05687
S          1.90040       -0.81444       -0.25312
C          4.56682        0.05319       -0.15689
S          5.83872        1.20355        0.15167
C          7.05363        0.08556       -0.34209
H          8.09365        0.37948       -0.31997
C          6.53616       -1.11336       -0.72669
H          7.10947       -1.96279       -1.07394
C          5.12391       -1.11132       -0.61449
F          4.38396       -2.18040       -0.93693
C         -1.28950       -1.32856        0.65655
O         -0.64336       -2.42001        1.10022
N         -2.64069       -1.42510        0.56913
C         -3.15002       -0.30175        0.14486
S         -2.01583        0.96201       -0.18922
C         -4.57569       -0.09320       -0.04449
S         -5.72020       -1.35469        0.26886
C         -6.97523       -0.26637       -0.19474
H         -8.01446       -0.56257       -0.18665
C         -6.43410        0.94275       -0.54360
O         -7.08109        2.04927       -0.96090
N         -5.07988        1.03670       -0.45770
H          0.29029       -2.21029        1.24601
H         -8.02822        1.87003       -0.98621
