34
COMP73_000001.log	Energy: -1028905.8064468
C          1.00574        0.88237        0.13684
C          2.24406        0.07186        0.15705
C          3.10832        0.15428       -0.93939
C          4.30713       -0.55118       -0.98169
C          5.22082       -0.47560       -2.17891
C          4.63508       -1.33911        0.12258
H          5.56841       -1.89737        0.12503
C          3.78918       -1.41378        1.22132
C          2.58133       -0.71711        1.26742
C          1.68194       -0.83183        2.46883
C         -0.31777        0.51550        0.06564
C         -0.82311       -0.87585       -0.04130
O         -0.10838       -1.86243       -0.02365
C         -2.29915       -0.98164       -0.16992
C         -2.97293       -2.16223       -0.29474
H         -2.54263       -3.15379       -0.32510
S         -4.66913       -1.90779       -0.40630
C         -4.49140       -0.20276       -0.28499
H         -5.34410        0.46193       -0.30713
C         -3.17874        0.15168       -0.16433
C         -2.68396        1.54161       -0.04458
O         -3.42050        2.51171       -0.03525
C         -1.20785        1.64873        0.05376
C         -0.55022        2.84076        0.12017
H         -0.99977        3.82433        0.12288
S          1.14655        2.61235        0.19572
H          2.82329        0.77618       -1.78496
H          4.85790        0.24852       -2.91408
H          5.29716       -1.44843       -2.67760
H          6.23414       -0.17879       -1.88656
H          4.07322       -2.02848        2.07179
H          2.23737       -1.19216        3.33935
H          0.87264       -1.54100        2.26476
H          1.22405        0.12761        2.72946
