50
COMP97_110000.log	Energy: -1633756.5372041
C          1.37097        0.01072        0.07690
C         -0.06845        0.24815        0.25093
C         -0.68612        1.10342        1.11357
F         -0.05040        1.94716        1.91652
C         -2.09802        1.01781        1.09259
F         -2.84976        1.78898        1.88005
C         -2.58946        0.08643        0.21747
S         -1.26104       -0.69223       -0.59099
C         -3.95345       -0.28697       -0.10255
C         -5.04828        0.25972        0.46028
C         -6.41428       -0.11070        0.14248
C         -6.90782       -1.02988       -0.74314
F         -6.15774       -1.80541       -1.52868
C         -8.32671       -1.10376       -0.76990
F         -8.96472       -1.94670       -1.57686
C         -8.92472       -0.24319        0.09345
H         -9.98212       -0.10512        0.26130
S         -7.74310        0.67138        0.95300
C          1.81291       -1.33207        0.21044
C          3.13985       -1.66533        0.14229
C          3.54398       -3.09003        0.30147
O          2.72659       -3.97365        0.46468
N          4.91454       -3.35584        0.25518
C          5.36537       -4.73772        0.40944
C          5.91506       -2.40035        0.06440
O          7.08346       -2.73162        0.02911
C          5.48328       -0.98566       -0.08815
C          6.42708       -0.00011       -0.26725
H          7.47645       -0.27264       -0.29376
C          6.02153        1.33793       -0.41160
C          4.68542        1.67368       -0.38195
C          4.30663        3.10024       -0.54310
O          5.13741        3.97934       -0.66412
N          2.94068        3.37098       -0.56339
C          2.50873        4.74883       -0.79256
C          1.91738        2.42247       -0.46238
O          0.76949        2.77563       -0.63600
C          2.31160        1.01168       -0.16163
C          3.69307        0.68086       -0.19901
C          4.11043       -0.65973       -0.04779
H         -4.06874       -1.06433       -0.85132
H         -4.93178        1.03658        1.20944
H          1.08936       -2.11919        0.39659
H          4.49292       -5.35257        0.61684
H          6.08234       -4.79765        1.22988
H          5.85619       -5.07230       -0.50691
H          6.75103        2.12862       -0.54852
H          3.39008        5.38434       -0.75358
H          1.79122        5.03694       -0.02312
H          2.02507        4.83267       -1.76824
