48
COMP84_200002.log	Energy: -1913609.1907458
C          1.55734       -0.03478        0.03304
C          3.02673       -0.10380        0.06041
C          3.92557        0.68931        0.72320
Cl         3.52470        2.00210        1.77807
C          5.27490        0.29222        0.50608
S          6.81897        0.85405        1.04763
C          7.61395       -0.39885        0.14365
H          8.69137       -0.48290        0.15850
C          6.74121       -1.19581       -0.52970
Cl         7.20187       -2.53699       -1.52063
C          5.38700       -0.80294       -0.32341
S          3.84195       -1.35897       -0.85742
C          0.79085       -1.20063        0.13465
C         -0.60193       -1.16913        0.11189
C         -1.26781        0.05119       -0.00662
C         -2.68364        0.48925       -0.06277
C         -2.61864        2.00921       -0.15303
O         -3.49072        2.85113       -0.10759
N         -1.28366        2.30929       -0.29578
O         -0.80608        3.58066       -0.14740
C         -0.88246        4.28566       -1.38832
C         -0.46384        1.20221       -0.13136
C          0.91308        1.20032       -0.11772
C         -3.86069       -0.19787       -0.04245
C         -3.93990       -1.70354        0.19365
O         -3.07287       -2.54015        0.33931
N         -5.28181       -1.98609        0.27274
O         -5.75653       -3.26594        0.25339
C         -5.80862       -3.79590        1.58013
C         -6.08519       -0.89855       -0.04338
C         -7.45827       -0.89759       -0.18314
C         -8.06093        0.31588       -0.51128
H         -9.13906        0.36149       -0.63193
C         -7.29239        1.46247       -0.68910
C         -5.90539        1.43496       -0.54286
C         -5.26823        0.23707       -0.21172
H          1.28715       -2.15748        0.26292
H         -1.16193       -2.08571        0.20491
H         -0.42462        5.25521       -1.18806
H         -1.92573        4.41751       -1.68685
H         -0.32275        3.75810       -2.16795
H          1.46336        2.12688       -0.22352
H         -6.24791       -4.78799        1.46711
H         -6.44292       -3.17291        2.21974
H         -4.80222       -3.87575        1.99928
H         -8.02514       -1.81250       -0.05532
H         -7.77470        2.40057       -0.94351
H         -5.32960        2.33702       -0.67476
