28
COMP74_000001.log	Energy: -1478519.2885855
C         -0.29937        1.11838       -0.13948
C         -1.62682        0.52479       -0.04432
C         -2.08240       -0.66055       -0.55732
H         -1.44502       -1.35719       -1.07994
C         -3.46472       -0.84272       -0.29735
S         -4.61709       -2.08925       -0.64971
C         -5.86807       -1.19400        0.15808
H         -6.86695       -1.60599        0.20698
C         -5.44270       -0.00793        0.67496
H         -6.08129        0.67992        1.21427
C         -4.05749        0.19150        0.40722
S         -2.90458        1.42534        0.77572
C          0.97103        0.56496       -0.14438
C          1.32464       -0.87176       -0.03346
O          0.51881       -1.78744       -0.04737
C          2.77996       -1.14413        0.08576
C          3.30640       -2.39314        0.25267
H          2.76097       -3.32312        0.33482
S          5.02238       -2.34604        0.32423
C          5.05419       -0.64064        0.12145
H          5.98361       -0.08855        0.09430
C          3.79199       -0.13263        0.00856
C          3.45963        1.29435       -0.17313
O          4.29984        2.17166       -0.26105
C          2.00171        1.57310       -0.21594
C          1.51202        2.84171       -0.27840
H          2.09143        3.75328       -0.33000
S         -0.19771        2.85621       -0.25790
