38
COMP72_210000.log	Energy: -2277692.2608124
C          0.84263        1.29828        0.59782
C         -0.43609        0.60420        0.71739
C         -0.77408       -0.41034        1.56770
Cl         0.26823       -1.12513        2.73238
C         -2.12082       -0.82396        1.40306
F         -2.65340       -1.80092        2.13532
C         -2.82109       -0.13673        0.45124
S         -1.78390        1.05320       -0.27901
C         -4.20468       -0.32065        0.06350
S         -5.24135       -1.52100        0.78453
C         -6.57844       -1.05895       -0.19562
H         -7.53111       -1.55981       -0.10282
C         -6.25849       -0.03907       -1.03604
Cl        -7.33199        0.69539       -2.16918
C         -4.90665        0.37413       -0.88206
F         -4.37970        1.36033       -1.60622
C          2.07027        0.80991        0.21740
C          2.34778       -0.57497       -0.25537
O          1.47402       -1.41868       -0.37088
C          3.76387       -0.83886       -0.58433
C          4.23502       -2.06093       -0.99264
C          3.48895       -3.34174       -1.19863
S          5.94052       -1.97100       -1.27006
C          6.03709       -0.29744       -0.84584
C          7.33884        0.43970       -0.88876
C          4.79397        0.16736       -0.50103
C          4.51237        1.55385       -0.08872
O          5.36019        2.43104       -0.03311
C          3.09377        1.81257        0.26410
C          2.62760        3.03185        0.66234
H          3.20490        3.94051        0.76558
S          0.95165        2.98437        1.00312
H          2.95910       -3.62309       -0.28449
H          4.16262       -4.15343       -1.48578
H          2.72904       -3.21904       -1.97555
H          8.16620       -0.22592       -1.14842
H          7.54314        0.90478        0.07919
H          7.29256        1.24962       -1.62255
