33
COMP22_430300.log	Energy: -1481713.7027274
C         -2.03521        0.12807       -0.19334
C         -0.63524       -0.28871       -0.29995
C         -0.11588       -1.51296       -0.68834
O         -0.77172       -2.61281       -1.07296
C          1.31358       -1.53062       -0.68678
C          2.05198       -2.70126       -1.03150
N          2.65025       -3.65413       -1.30999
C          1.86996       -0.34194       -0.25835
S          0.65387        0.81031        0.11380
C          3.28159       -0.00805       -0.12086
S          4.41929       -0.43443       -1.34383
C          5.71972        0.29643       -0.48540
H          6.72172        0.27295       -0.89116
C          5.30340        0.84814        0.69215
O          6.03749        1.49142        1.62099
C          3.89800        0.67880        0.90840
C          3.24266        1.13830        2.08876
N          2.71130        1.51098        3.04935
C         -3.03690       -0.76744        0.32609
N         -2.83689       -2.04409        0.65878
S         -4.25489       -2.62988        1.20209
N         -5.17364       -1.30829        1.04515
C         -4.39196       -0.34847        0.54644
C         -4.80315        0.97244        0.23517
H         -5.82297        1.29055        0.41229
C         -3.86718        1.80762       -0.30440
C         -4.25945        3.14457       -0.65638
N         -4.60769        4.21490       -0.92873
C         -2.49684        1.39167       -0.53334
C         -1.64550        2.35259       -1.17457
N         -1.00818        3.15116       -1.72139
H         -1.58732       -2.69295       -0.54183
H          6.96257        1.51579        1.34852
