45
COMP41_000032.log	Energy: -1621122.3995822
C         -2.08958       -1.28250       -0.17652
C         -0.74824       -0.72418       -0.11679
C          0.40370       -1.44337       -0.03929
H          0.45165       -2.52198        0.00309
C          1.58116       -0.62394       -0.01695
C          2.92780       -1.03732        0.06258
C          3.24043       -2.49517        0.13565
O          2.43450       -3.39636        0.05455
O          4.54798       -2.72040        0.30801
C          4.94518       -4.08958        0.37837
C          3.91616       -0.04659        0.06327
S          5.65218       -0.27180        0.15170
C          5.91056        1.44159        0.06242
H          6.92300        1.82422        0.08329
C          4.77741        2.16704       -0.02490
H          4.74272        3.24298       -0.09350
C          3.59423        1.33957       -0.02565
C          2.24914        1.74947       -0.09373
C          1.92724        3.20637       -0.18382
O          2.72818        4.10389       -0.32136
O          0.61141        3.42371       -0.09282
C          0.17709        4.77994       -0.18895
C          1.25719        0.75889       -0.08212
S         -0.47358        1.00452       -0.15095
C         -3.32918       -0.69887       -0.13200
C         -3.90211        0.66603       -0.00118
O         -3.38469        1.75190        0.08879
N         -5.29042        0.43606        0.01804
O         -6.17868        1.46358       -0.02515
C         -6.59231        1.82490        1.29479
C         -5.69681       -0.90150       -0.13159
O         -6.83480       -1.29422       -0.15822
C         -4.40558       -1.62736       -0.21203
C         -4.01641       -2.91955       -0.32327
H         -4.62525       -3.80975       -0.39972
S         -2.29297       -3.01740       -0.33945
H          6.02509       -4.06963        0.51769
H          4.68395       -4.60905       -0.54620
H          4.45581       -4.58369        1.22054
H         -0.90742        4.73885       -0.10024
H          0.47326        5.20595       -1.15003
H          0.61230        5.37314        0.61836
H         -7.30570        2.63710        1.15118
H         -5.73756        2.17494        1.88155
H         -7.08251        0.97930        1.78658
