48
COMP83_000012.log	Energy: -837886.1933090
C          3.30229       -0.46217       -0.08370
C          4.77001       -0.67456       -0.05079
C          5.63704        0.21528       -0.69495
C          7.01243        0.01355       -0.66592
H          7.66898        0.70915       -1.18019
C          7.54558       -1.08104        0.00915
H          8.61969       -1.23878        0.03241
C          6.69298       -1.97203        0.65522
C          5.31759       -1.77084        0.62494
H          4.65997       -2.45681        1.15132
C          2.42571       -1.54110       -0.24582
C          1.04406       -1.37377       -0.28278
C          0.49729       -0.09607       -0.14947
C         -0.86490        0.47650       -0.18195
C         -0.65196        1.98497       -0.18504
O         -1.42364        2.90438       -0.35380
N          0.68710        2.16116        0.10265
O          1.30002        3.36585       -0.12082
C          1.21514        4.18327        1.04673
C          1.40307        0.97202       -0.00167
C          2.77254        0.82950        0.03788
C         -2.09929       -0.09543       -0.10902
C         -2.30129       -1.58487        0.13567
O         -1.52570       -2.51752        0.08370
N         -3.63404       -1.71807        0.44630
O         -4.23180       -2.92839        0.63864
C         -4.44721       -3.59199       -0.61217
C         -4.35713       -0.54985        0.23355
C         -5.72474       -0.39167        0.32931
C         -6.23821        0.87421        0.04578
H         -7.30917        1.04146        0.10976
C         -5.39191        1.91582       -0.32115
C         -4.01044        1.73283       -0.40336
C         -3.46244        0.48350       -0.10845
H          5.22733        1.05883       -1.24358
H          7.10028       -2.82483        1.19017
H          2.83373       -2.53793       -0.38046
H          0.39765       -2.22558       -0.42393
H          1.75611        5.09532        0.79009
H          1.69029        3.68980        1.90121
H          0.17133        4.41765        1.27186
H          3.40962        1.69684        0.16951
H         -4.96807       -4.51489       -0.35444
H         -3.49169       -3.82072       -1.09119
H         -5.07300       -2.97836       -1.26975
H         -6.35800       -1.22380        0.61560
H         -5.80748        2.89163       -0.55051
H         -3.36736        2.54859       -0.69425
