54
COMP71_300003.log	Energy: -2025848.1270018
C         -0.21834       -2.08313        0.04942
C          1.13542       -1.53656        0.07171
C          1.57460       -0.49343        0.83856
C          0.69488        0.14320        1.76486
N         -0.04585        0.61819        2.52024
C          2.97060       -0.16532        0.62260
C          3.73064        0.85740        1.20811
C          3.14876        1.84057        2.18900
C          5.06329        0.91168        0.80883
S          6.22844        2.08849        1.39428
C          7.46804        1.40821        0.41429
H          8.46472        1.82867        0.42690
C          7.05459        0.34564       -0.32832
C          7.96295       -0.33245       -1.19765
N          8.72142       -0.86484       -1.89513
C          5.65049        0.02125       -0.12587
C          4.88713       -0.99324       -0.72040
C          5.46104       -1.95759       -1.72484
C          3.55511       -1.04866       -0.32008
S          2.38474       -2.20205       -0.93079
C         -1.40007       -1.41369       -0.15480
C         -1.53564        0.00254       -0.60004
O         -0.62617        0.62079       -1.10854
C         -2.91219        0.55558       -0.44032
C         -3.26741        1.87965       -0.53382
C         -2.40089        3.09113       -0.58886
O         -1.31112        3.19318       -0.09171
O         -3.04322        4.08182       -1.22844
C         -2.34186        5.32588       -1.28296
S         -4.97872        2.07987       -0.44005
C         -5.22905        0.39944       -0.21274
C         -6.61963       -0.11697       -0.02757
O         -7.51949        0.11358       -0.79780
O         -6.72862       -0.80078        1.10663
C         -7.98804       -1.44529        1.31288
C         -4.04779       -0.29844       -0.25323
C         -3.93215       -1.77830       -0.16698
O         -4.88809       -2.52834       -0.21675
C         -2.54133       -2.26510       -0.01517
C         -2.20871       -3.55955        0.26419
H         -2.89113       -4.38761        0.39966
S         -0.51434       -3.75788        0.40176
H          2.27494        2.34621        1.76788
H          3.87486        2.60925        2.46514
H          2.82594        1.34372        3.10897
H          6.30297       -2.51483       -1.30394
H          5.83026       -1.43463       -2.61215
H          4.71619       -2.68540       -2.05624
H         -2.97884        5.99344       -1.86128
H         -1.37481        5.19331       -1.77267
H         -2.18423        5.71911       -0.27571
H         -7.90762       -1.93099        2.28400
H         -8.15882       -2.18466        0.52726
H         -8.79814       -0.71292        1.31090
