56
COMP85_000010.log	Energy: -922525.2446150
C         -1.27775        0.25506       -0.15315
C         -2.75969        0.28680       -0.21151
C         -3.49907       -0.77386        0.31152
C         -4.88743       -0.71089        0.23772
N         -5.83019       -1.61714        0.68339
H         -5.62578       -2.49224        1.13521
C         -7.09712       -1.14115        0.40021
C         -8.34033       -1.71736        0.65768
C         -9.46872       -1.01396        0.25981
H        -10.45024       -1.43975        0.44557
C         -9.36729        0.23171       -0.37789
C         -8.12648        0.79834       -0.63087
C         -6.97560        0.11069       -0.24188
C         -5.55738        0.38646       -0.34504
C         -4.80621        1.44074       -0.86530
C         -3.42365        1.38548       -0.79536
C         -0.57504       -0.92870       -0.39860
C          0.81457       -0.98980       -0.33368
C          1.54645        0.15450       -0.01558
C          2.97874        0.49186        0.08434
C          3.00170        1.98644        0.37256
O          3.94684        2.73119        0.55541
N          1.69259        2.39901        0.44756
C          1.30165        3.75930        0.71889
C          0.82185        1.34558        0.19766
C         -0.55640        1.41960        0.14544
C          4.10851       -0.26744        0.00354
C          4.08453       -1.78834        0.01236
O          3.13981       -2.55361        0.07874
N          5.39288       -2.20864       -0.01995
C          5.78326       -3.59559       -0.00920
C          6.26406       -1.12778       -0.08724
C          7.64275       -1.18787       -0.18916
C          8.33716        0.01791       -0.28643
H          9.42006        0.00433       -0.36772
C          7.65380        1.22884       -0.28866
C          6.26331        1.27232       -0.17915
C          5.54172        0.08391       -0.06201
H         -2.99972       -1.61274        0.78740
H         -8.42517       -2.68127        1.15048
H        -10.27086        0.75440       -0.67546
H         -8.04926        1.76236       -1.12552
H         -5.29707        2.29194       -1.32827
H         -2.83372        2.18954       -1.22468
H         -1.12456       -1.82442       -0.67109
H          1.32269       -1.92231       -0.52117
H          2.21412        4.34043        0.85574
H          0.69539        3.81235        1.62944
H          0.72764        4.17068       -0.11854
H         -1.07255        2.35153        0.35257
H          4.87171       -4.19220        0.03985
H          6.40903       -3.81411        0.86278
H          6.33663       -3.84883       -0.92019
H          8.16359       -2.13974       -0.20035
H          8.20414        2.16036       -0.37313
H          5.74836        2.21975       -0.16907
