40
COMP74_100003.log	Energy: -1888905.7437405
C          1.28476       -1.67832       -0.18442
C          2.55982       -0.97062       -0.12786
C          3.55712       -1.17095        0.78265
F          3.47460       -2.03681        1.79041
C          4.69921       -0.35973        0.56177
S          6.23038       -0.13338        1.33579
C          6.66943        1.06557        0.15267
H          7.62778        1.56178        0.19741
C          5.69006        1.26483       -0.76602
F          5.76919        2.12558       -1.77832
C          4.54405        0.44928       -0.54507
S          3.01630        0.23313       -1.31834
C         -0.00369       -1.19622       -0.13535
C         -0.39186        0.21574        0.10167
O          0.39925        1.08320        0.41153
C         -1.85970        0.47555        0.01423
C         -2.43381        1.72154        0.06973
C         -1.77849        3.05852       -0.04942
O         -0.94507        3.33811       -0.87001
O         -2.30237        3.91654        0.83501
C         -1.78100        5.24696        0.76974
S         -4.14844        1.62138        0.15226
C         -4.11927       -0.09917        0.09749
C         -5.39831       -0.85225        0.25479
O         -5.54939       -1.81107        0.96416
O         -6.37328       -0.26200       -0.45155
C         -7.66491       -0.86169       -0.31896
C         -2.83433       -0.57612        0.00199
C         -2.44739       -1.99632       -0.23475
O         -3.25075       -2.88088       -0.45017
C         -0.98475       -2.23373       -0.25825
C         -0.43172       -3.47466       -0.39363
H         -0.96440       -4.41133       -0.48616
S          1.27673       -3.40328       -0.38826
H         -2.30908        5.80404        1.54221
H         -1.96505        5.68184       -0.21546
H         -0.70637        5.23979        0.96430
H         -8.32739       -0.26488       -0.94411
H         -7.99107       -0.83843        0.72359
H         -7.63651       -1.89766       -0.66360
