33
COMP27_320000.log	Energy: -1896964.6023692
C          3.46267       -0.82233       -0.54710
C          2.12352       -0.21932       -0.47505
C          1.75166        1.08753       -0.62276
Cl         2.84437        2.36945       -0.98651
C          0.34185        1.30227       -0.50626
C         -0.25513        2.58800       -0.64726
N         -0.75992        3.62643       -0.75866
C         -0.36088        0.13275       -0.26702
S          0.73134       -1.20426       -0.18295
C         -1.77734       -0.13614       -0.09059
C         -2.75774        0.78715       -0.06945
C         -4.17522        0.51244        0.09367
C         -4.89164       -0.67251        0.15542
C         -4.31743       -1.97184        0.05388
N         -3.83500       -3.02356       -0.02857
C         -6.29769       -0.45347        0.32051
Cl        -7.43834       -1.74440        0.42934
C         -6.63493        0.86218        0.37922
H         -7.62212        1.28394        0.49969
S         -5.24761        1.86397        0.23554
C          4.49816       -0.42146        0.36048
N          4.38552        0.48020        1.33517
S          5.83994        0.55427        2.05713
N          6.66059       -0.54570        1.18583
C          5.80514       -1.01859        0.27651
C          6.07969       -2.02364       -0.69508
H          7.06796       -2.46601       -0.74611
C          5.06813       -2.39740       -1.52914
H          5.23972       -3.16153       -2.28024
C          3.77062       -1.80124       -1.45480
H          3.01045       -2.12660       -2.15901
H         -2.02638       -1.18565        0.03311
H         -2.50985        1.83847       -0.17837
