38
COMP61_000021.log	Energy: -1191956.1808479
C         -2.65580        0.59169        0.00882
C         -1.21746        0.54098       -0.00642
C         -0.48149       -0.59548        0.15758
H         -0.93714       -1.56583        0.33225
C          0.92729       -0.35713        0.07561
C          1.97213       -1.28352        0.19241
O          1.74480       -2.60449        0.43497
C          1.30402       -3.35214       -0.69642
C          3.27158       -0.80469        0.09070
S          4.72794       -1.76243        0.19871
C          5.70127       -0.34068       -0.06395
H          6.77851       -0.43969       -0.09332
C          4.98455        0.79572       -0.21605
H          5.42080        1.76924       -0.40200
C          3.56539        0.56479       -0.12613
C          2.52171        1.49015       -0.23697
O          2.76093        2.81909       -0.45643
C          3.04258        3.54967        0.73238
C          1.22286        1.01317       -0.14089
S         -0.22909        1.97484       -0.26763
C         -3.55223       -0.44636        0.06641
C         -3.63594       -1.89591        0.10349
O         -2.79724       -2.78303        0.13629
N         -5.03513       -2.11934        0.09812
H         -5.42546       -3.04806        0.13136
C         -5.75762       -0.94236        0.06200
H         -6.83873       -0.95367        0.04819
C         -4.88104        0.09365        0.04301
C         -4.78844        1.55432       -0.02351
O         -5.61414        2.43857       -0.05230
N         -3.38303        1.76909       -0.04937
H         -2.99537        2.70076       -0.05483
H          1.20080       -4.38239       -0.35494
H          2.04389       -3.30139       -1.50389
H          0.33538       -2.99335       -1.06113
H          3.20337        4.58462        0.42736
H          3.94395        3.16691        1.22614
H          2.20081        3.49971        1.43358
