31
COMP21_400010.log	Energy: -1298112.1460280
C          2.41167        0.83983        0.13944
C          0.97311        0.57721        0.05595
C          0.24020       -0.57736        0.19553
O          0.64539       -1.83299        0.41592
C         -1.18961       -0.36561        0.11851
C         -2.17935       -1.33923        0.23356
H         -1.90817       -2.37618        0.39945
C         -3.49883       -0.92388        0.12775
S         -4.93053       -1.92754        0.23259
C         -5.95946       -0.53399       -0.01513
H         -7.03427       -0.65932       -0.03370
C         -5.26350        0.61686       -0.16732
O         -5.74580        1.86791       -0.37467
C         -3.83263        0.43377       -0.09139
C         -2.83978        1.40622       -0.20792
H         -3.10368        2.44462       -0.37689
C         -1.52282        0.98758       -0.09692
S         -0.09077        1.97687       -0.21473
C          3.42709       -0.16996       -0.03657
N          3.22429       -1.46850       -0.25998
S          4.68383       -2.18498       -0.39473
N          5.63305       -0.88850       -0.18146
C          4.83278        0.16207        0.00725
C          5.26138        1.49840        0.23360
H          6.31911        1.73077        0.26104
C          4.28739        2.43438        0.40964
H          4.55887        3.46950        0.59171
C          2.89932        2.11027        0.36475
H          2.19775        2.92208        0.52696
H          1.59938       -1.91893        0.19795
H         -6.70940        1.83814       -0.40106
