38
COMP62_400002.log	Energy: -1238436.5493408
C          1.35285        0.55368       -0.03024
C          0.07450       -0.06020        0.02100
C         -0.21847       -1.40969        0.29811
O          0.59862       -2.40180        0.58532
C         -1.61740       -1.66669        0.32031
H         -2.00833       -2.66154        0.49501
C         -2.37891       -0.56536        0.05279
S         -1.41819        0.85248       -0.19960
C         -3.82760       -0.48618       -0.03467
S         -4.82965       -1.66413        0.75726
C         -6.26772       -0.90516        0.17661
H         -7.23911       -1.31118        0.42414
C         -5.98028        0.19926       -0.57636
O         -6.85863        1.03257       -1.18609
C         -4.58236        0.44179       -0.69970
H         -4.17620        1.25959       -1.28320
C          2.63996        0.01917       -0.11151
C          3.32793       -1.21110       -0.34678
O          2.96350       -2.39267       -0.43629
N          4.66931       -0.80399       -0.44132
O          5.68727       -1.65404       -0.75424
C          6.07224       -2.42009        0.39149
C          4.83406        0.56245       -0.35210
H          5.81079        1.00509       -0.47713
C          3.60091        1.08861       -0.13708
C          2.89744        2.35912       -0.04962
O          3.23890        3.51604        0.00996
N          1.53433        1.92960       -0.00977
O          0.51704        2.82734        0.09121
C          0.36395        3.28027        1.44353
H          1.51771       -2.36575        0.17333
H         -7.75765        0.72324       -1.02460
H          6.89565       -3.04554        0.04478
H          5.24085       -3.04457        0.72802
H          6.41196       -1.76055        1.19773
H         -0.48359        3.96526        1.41240
H          1.26600        3.80650        1.76414
H          0.14183        2.43776        2.10673
