40
COMP72_110002.log	Energy: -1919751.0609713
C         -0.12751       -1.47405        0.46085
C          1.12238       -0.73644        0.56457
C          1.41281        0.31148        1.38525
F          0.57944        0.84370        2.26346
C          2.73757        0.79016        1.23492
F          3.20167        1.81061        1.95709
C          3.48111        0.10933        0.31250
S          2.51027       -1.14789       -0.40315
C          4.85828        0.34678       -0.06543
S          5.82933        1.61156        0.64281
C          7.20340        1.19696       -0.31512
H          8.13243        1.74010       -0.22762
C          6.93091        0.14860       -1.13054
F          7.78398       -0.40501       -1.98734
C          5.60141       -0.33302       -0.98894
F          5.14339       -1.35967       -1.70663
C         -1.40950       -1.00886        0.27099
C         -1.79208        0.41201        0.03155
O         -0.97665        1.31643       -0.01242
C         -3.23880        0.62001       -0.16613
C         -3.81255        1.84348       -0.37702
O         -3.17362        3.00657       -0.43714
C         -3.92275        4.18657       -0.66731
S         -5.56076        1.72952       -0.56387
C         -5.49093       -0.01685       -0.34924
O         -6.57997       -0.77719       -0.38403
C         -7.83411       -0.15880       -0.61035
C         -4.21201       -0.45581       -0.14970
C         -3.83437       -1.86224        0.05201
O         -4.62166       -2.79342        0.05686
C         -2.37527       -2.06942        0.25022
C         -1.81756       -3.30388        0.41001
H         -2.34043       -4.25039        0.41543
S         -0.12011       -3.20735        0.60818
H         -3.19801        4.99953       -0.66946
H         -4.65570        4.35037        0.13224
H         -4.43133        4.14565       -1.63823
H         -8.56882       -0.96258       -0.59217
H         -7.85731        0.33676       -1.58854
H         -8.06399        0.56550        0.18068
