47
COMP79_000002.log	Energy: -1743984.3221217
C         -0.04552       -1.55697        0.25353
C         -1.35671       -0.92810        0.18344
C         -1.78649        0.27244        0.70076
C         -3.15948        0.49621        0.46581
C         -3.76574       -0.52790       -0.22466
S         -2.67365       -1.78931       -0.61290
C         -5.15839       -0.19509       -0.42594
C         -5.40647        1.03182        0.14308
C         -4.14826        1.60949        0.77196
C         -4.31805        1.81258        2.28609
C         -3.73212        2.92346        0.09028
C         -6.75891        1.43834       -0.00176
C         -7.49710        0.50704       -0.67802
H         -8.54745        0.54943       -0.93179
S         -6.56099       -0.87798       -1.14759
C          1.24090       -1.04082        0.23095
C          1.62861        0.38872        0.10976
O          0.82918        1.31175        0.13565
C          3.08020        0.62325       -0.03715
C          3.63702        1.85888       -0.22137
O          2.98073        3.01299       -0.30334
C          3.71239        4.19353       -0.57869
S          5.39400        1.78100       -0.33416
C          5.35161        0.03491       -0.11618
O          6.45657       -0.70412       -0.10056
C          7.70634       -0.06110       -0.27302
C          4.07410       -0.42872        0.02473
C          3.70782       -1.83817        0.21385
O          4.51169       -2.75257        0.29000
C          2.24202       -2.07477        0.28479
C          1.72155       -3.33027        0.36062
H          2.27873       -4.25588        0.40135
S          0.01145       -3.29752        0.37748
H         -1.11798        0.95047        1.21035
H         -4.61149        0.87856        2.77402
H         -5.08761        2.56598        2.48767
H         -3.37919        2.15743        2.73277
H         -3.60692        2.77916       -0.98658
H         -2.78323        3.28373        0.50190
H         -4.49229        3.69594        0.25218
H         -7.17468        2.36729        0.37151
H          2.97664        4.99617       -0.60926
H          4.22089        4.12439       -1.54800
H          4.44407        4.39857        0.21283
H          8.45561       -0.84987       -0.21995
H          7.88689        0.66956        0.52512
H          7.76354        0.43296       -1.25069
