56
COMP91_200002.log	Energy: -2104417.7237356
C          0.97144       -0.09554       -0.11654
C         -0.50797       -0.14176       -0.07900
C         -1.29030       -0.33681        1.00567
Cl        -0.57246       -0.45106        2.58570
C         -2.71209       -0.41153        0.71988
C         -3.80580       -0.59179        1.58044
C         -3.67749       -0.74002        3.07541
C         -5.05782       -0.62579        0.96804
S         -6.56483       -0.84341        1.84329
C         -7.47244       -0.75687        0.37424
H         -8.54964       -0.84702        0.38882
C         -6.69731       -0.57426       -0.71511
Cl        -7.42090       -0.45638       -2.29374
C         -5.27482       -0.49049       -0.42934
C         -4.17963       -0.30879       -1.28956
C         -4.30855       -0.15634       -2.78406
C         -2.92971       -0.27492       -0.67662
S         -1.42455       -0.06371       -1.55390
C          1.63666       -1.33729       -0.25126
C          3.00522       -1.41183       -0.29571
C          3.65265       -2.74494       -0.43959
O          3.03854       -3.78486       -0.50160
N          5.05157       -2.71515       -0.48387
O          5.66766       -3.90899       -0.74284
C          5.97656       -4.59724        0.47092
C          5.89565       -1.60116       -0.38854
O          7.09943       -1.71770       -0.40817
C          5.19799       -0.29375       -0.24701
C          5.94637        0.85686       -0.15523
H          7.02800        0.78396       -0.18982
C          5.30695        2.10141       -0.01867
C          3.93318        2.17959        0.02659
C          3.30504        3.51740        0.18212
O          3.93105        4.55124        0.24449
N          1.91077        3.49832        0.23984
O          1.30815        4.69544        0.51446
C          0.98930        5.39601       -0.68958
C          1.04449        2.39958        0.12780
O         -0.15229        2.56340        0.14544
C          1.71522        1.07219       -0.02644
C          3.13532        1.01144       -0.06682
C          3.78432       -0.23615       -0.20602
H         -3.07410       -1.61254        3.33989
H         -4.65489       -0.86185        3.54846
H         -3.20364        0.13795        3.52202
H         -4.91426        0.71582       -3.04426
H         -4.78162       -1.03289       -3.23443
H         -3.33175       -0.03021       -3.25773
H          1.05536       -2.25103       -0.31800
H          6.47220       -5.51297        0.14777
H          5.06055       -4.84205        1.01650
H          6.65775       -4.00282        1.08683
H          5.88101        3.01861        0.05596
H          0.50444        6.31234       -0.35208
H          0.29588        4.81211       -1.30161
H          1.90058        5.63918       -1.24390
