38
COMP62_240002.log	Energy: -1815203.2300830
C         -1.80894        0.68948       -0.22186
C         -0.50800        0.08206       -0.35872
C         -0.20749       -1.14967       -0.89420
Cl        -1.30145       -2.20688       -1.70907
C          1.16836       -1.48452       -0.81331
O          1.71534       -2.62615       -1.28255
C          1.92600       -0.50257       -0.21657
S          0.93556        0.85751        0.22246
C          3.35415       -0.52812        0.01301
S          4.36152       -1.88327       -0.43727
C          5.77765       -1.11483        0.15784
H          6.74171       -1.59874        0.09901
C          5.49641        0.11105        0.67170
Cl         6.65640        1.20165        1.36652
C          4.11516        0.45763        0.59571
O          3.58099        1.61592        1.03446
C         -3.03825        0.14365        0.04762
C         -3.66354       -1.08379        0.52465
O         -3.28208       -2.21746        0.71967
N         -4.99471       -0.63294        0.80208
O         -6.02607       -1.49463        1.04151
C         -6.00344       -1.93719        2.40168
C         -5.19638        0.69137        0.50941
H         -6.16507        1.14332        0.66976
C         -4.01887        1.20072        0.05998
C         -3.36546        2.46991       -0.22903
O         -3.75068        3.60698       -0.37839
N         -2.00268        2.06224       -0.34114
O         -1.01451        2.93479       -0.67792
C         -0.96227        3.12869       -2.09566
H          1.01206       -3.21090       -1.60001
H          4.27661        2.16749        1.41993
H         -6.85816       -2.60913        2.48938
H         -6.11776       -1.08918        3.08611
H         -5.07644       -2.47645        2.60970
H         -0.14098        3.82850       -2.25213
H         -1.90102        3.56084       -2.45200
H         -0.75124        2.18143       -2.60386
