30
COMP52_320200.log	Energy: -2675044.5507917
C          1.12321       -0.44715       -0.48869
C         -0.27426       -0.05021       -0.60590
C         -0.77661        1.08293       -1.21295
C          0.02876        2.03445       -1.90694
N          0.68794        2.80282       -2.47086
C         -2.19697        1.18536       -1.08828
Cl        -3.09045        2.50194       -1.74589
C         -2.75846        0.14722       -0.39753
S         -1.53924       -0.97552        0.11199
C         -4.16956       -0.08805       -0.10265
S         -5.29900       -0.50635       -1.35559
C         -6.59451       -0.60458       -0.24791
H         -7.59446       -0.84819       -0.57911
C         -6.19849       -0.33777        1.03613
C         -7.08395       -0.35121        2.15606
N         -7.81103       -0.36735        3.05793
C         -4.79840       -0.04171        1.11144
Cl        -4.01166        0.35225        2.59153
C          1.72154       -1.64806       -0.78754
Cl         0.89877       -3.01609       -1.44262
N          3.05435       -1.74121       -0.56956
C          3.50762       -0.61300       -0.09355
S          2.33550        0.63846        0.11857
C          4.90522       -0.39379        0.24267
S          6.10208       -1.62654        0.01089
C          7.27965       -0.53844        0.62887
H          8.32160       -0.80597        0.72389
C          6.68229        0.64466        0.95334
Cl         7.51959        2.00415        1.60955
N          5.34372        0.73019        0.73794
