38
COMP77_140001.log	Energy: -1794508.7922487
C          1.85134        0.97387        0.39442
C          0.55002        0.33897        0.35262
C          0.12039       -0.85175        0.91345
O          0.84730       -1.77856        1.53377
C         -1.29427       -0.99494        0.82454
F         -1.89144       -2.08433        1.31143
C         -1.96056        0.03578        0.22395
S         -0.81375        1.24033       -0.28060
C         -3.37029        0.21503       -0.06336
C         -4.33455       -0.67057        0.25523
C         -5.74653       -0.49205       -0.01971
C         -6.42460        0.53746       -0.61026
F         -5.85881        1.66460       -1.08390
C         -7.83386        0.36942       -0.71395
O         -8.65883        1.28666       -1.26850
C         -8.23419       -0.82171       -0.18635
H         -9.24076       -1.20827       -0.13054
S         -6.89446       -1.72117        0.42792
C          3.14932        0.50696        0.21557
C          3.55554       -0.85531       -0.14770
O          2.79063       -1.82013       -0.20396
C          4.98858       -1.02987       -0.45869
C          5.54428       -2.21142       -0.86338
H          5.03256       -3.14936       -1.02931
S          7.23845       -2.05816       -1.09330
C          7.22266       -0.40081       -0.63831
H          8.12689        0.19203       -0.61922
C          5.96078        0.01480       -0.32747
C          5.58813        1.38023        0.09634
O          6.39408        2.28325        0.22686
C          4.13183        1.56250        0.31949
C          3.58609        2.78017        0.57749
H          4.11914        3.71521        0.68286
S          1.88126        2.69220        0.71138
H          1.67168       -1.89570        1.00397
H         -3.63757        1.13934       -0.56605
H         -4.06458       -1.59389        0.75760
H         -8.12529        2.03665       -1.56246
