58
COMP91_100022.log	Energy: -1746491.9219164
C         -0.97538       -0.19620       -0.16534
C          0.48992       -0.29381       -0.16117
C          1.36257        0.47855        0.52687
F          0.97706        1.50407        1.28532
C          2.74461        0.12118        0.38901
C          3.89094        0.72494        0.91811
O          3.84956        1.84148        1.69538
C          3.63884        3.05091        0.96704
C          5.11272        0.12978        0.63168
S          6.66332        0.71797        1.18500
C          7.47681       -0.57367        0.34486
H          8.55292       -0.66651        0.37560
C          6.62025       -1.38909       -0.30195
F          7.00886       -2.45316       -1.00998
C          5.23002       -1.03337       -0.16709
C          4.08352       -1.62508       -0.71128
O          4.11604       -2.71504       -1.52740
C          4.29160       -3.95682       -0.85026
C          2.86229       -1.03140       -0.42095
S          1.31842       -1.58866       -1.01575
C         -1.69077       -1.39609        0.08845
C         -3.05474       -1.41394        0.19643
C         -3.73832       -2.70802        0.47158
O         -3.15938       -3.76656        0.55815
N         -5.12730       -2.61743        0.61327
O         -5.76538       -3.76474        0.99854
C         -6.19815       -4.51519       -0.13773
C         -5.93318       -1.47600        0.50724
O         -7.13548       -1.54096        0.62252
C         -5.19969       -0.21059        0.23033
C         -5.91069        0.96320        0.12958
H         -6.98772        0.93922        0.25456
C         -5.23469        2.16756       -0.12360
C         -3.86712        2.18223       -0.28758
C         -3.20808        3.48602       -0.54913
O         -3.79059        4.54682       -0.56476
N         -1.83572        3.39700       -0.78019
O         -1.23863        4.54456       -1.22757
C         -0.65641        5.26219       -0.14002
C         -1.02130        2.25194       -0.79858
O          0.12876        2.34493       -1.15652
C         -1.68843        0.98756       -0.35346
C         -3.10545        0.98933       -0.19615
C         -3.79348       -0.21475        0.07809
H          3.63669        3.85045        1.70859
H          2.68031        3.03318        0.43904
H          4.45079        3.21419        0.24893
H          4.22536       -4.72990       -1.61638
H          3.50168       -4.10718       -0.10484
H          5.27217       -4.00543       -0.36738
H         -1.14969       -2.32701        0.22547
H         -6.68968       -5.39182        0.28484
H         -5.34078       -4.82507       -0.74261
H         -6.91269       -3.93688       -0.73069
H         -5.77272        3.10668       -0.19424
H         -0.19389        6.13512       -0.60159
H          0.10650        4.65554        0.35834
H         -1.42770        5.57928        0.56820
