39
COMP25_000420.log	Energy: -953506.9603662
C          1.95838        0.20175       -0.18174
C          0.53230       -0.20050       -0.23525
C         -0.43618        0.58715        0.38497
C         -1.75967        0.18117        0.28462
N         -2.89482        0.77141        0.81148
O         -2.92458        2.04935        1.30280
C         -2.96122        2.99793        0.23210
C         -4.02310        0.08400        0.40491
C         -5.36500        0.36412        0.64680
C         -6.29827       -0.52965        0.13888
H         -7.35505       -0.34508        0.30761
C         -5.90564       -1.66887       -0.58023
C         -4.56318       -1.93373       -0.81576
C         -3.60268       -1.04576       -0.32977
C         -2.15480       -0.97992       -0.40910
C         -1.16972       -1.76848       -1.00452
C          0.15628       -1.37613       -0.91780
C          2.99734       -0.74507        0.13024
N          2.81630       -2.03172        0.41694
S          4.29005       -2.66630        0.70549
N          5.21796       -1.34011        0.48379
C          4.38654       -0.35165        0.17253
C          4.76431        0.99469       -0.09672
H          5.80888        1.28645       -0.06354
C          3.76672        1.86932       -0.38398
O          3.95037        3.18956       -0.66880
C          2.36992        1.48741       -0.42806
O          1.48427        2.46079       -0.74027
H         -0.17217        1.48724        0.92680
H         -3.01596        3.97364        0.71715
H         -3.84599        2.83837       -0.39356
H         -2.05294        2.93006       -0.37648
H         -5.65732        1.24022        1.21572
H         -6.66238       -2.35093       -0.95496
H         -4.26359       -2.81591       -1.37437
H         -1.43621       -2.67530       -1.53950
H          0.92435       -1.98418       -1.38119
H          4.89068        3.40433       -0.66363
H          1.98655        3.27050       -0.91590
