39
COMP21_300020.log	Energy: -1463139.5807280
C          2.82176       -0.99246       -0.41974
C          1.38680       -0.69050       -0.32175
C          0.76454        0.50408       -0.56388
C          1.46862        1.65034       -1.04253
N          2.05523        2.56856       -1.43870
C         -0.66812        0.45009       -0.35458
C         -1.62591        1.46210       -0.48077
O         -1.30586        2.72603       -0.86818
C         -0.86487        3.57949        0.18902
C         -2.95095        1.12516       -0.22884
S         -4.30040        2.23108       -0.33245
C         -5.39251        0.98149        0.14592
H         -6.44948        1.19152        0.24179
C         -4.79286       -0.22073        0.36708
C         -5.53226       -1.37847        0.75794
N         -6.15764       -2.30952        1.05208
C         -3.35926       -0.17398        0.15100
C         -2.40190       -1.18518        0.27865
O         -2.72559       -2.44508        0.67998
C         -3.10926       -3.32660       -0.37506
C         -1.07728       -0.84799        0.02802
S          0.27521       -1.94120        0.16521
C          3.78689       -0.18319        0.26724
N          3.52421        0.85261        1.06373
S          4.96017        1.40881        1.57756
N          5.96443        0.36591        0.84016
C          5.19107       -0.47105        0.14400
C          5.63660       -1.57036       -0.64387
H          6.69792       -1.77276       -0.73117
C          4.69301       -2.33694       -1.26198
H          4.99635       -3.18402       -1.86860
C          3.29744       -2.05129       -1.14919
H          2.59490       -2.68365       -1.68425
H         -0.59665        4.52465       -0.28194
H          0.01470        3.16428        0.69123
H         -1.66747        3.73657        0.91943
H         -3.34805       -4.27745        0.10051
H         -2.28787       -3.45997       -1.08921
H         -3.99535       -2.95284       -0.89825
