37
COMP47_120003.log	Energy: -2108365.7269757
C         -2.62446       -1.48110       -0.04328
C         -1.17392       -1.55770       -0.00469
C         -0.35025       -2.66366        0.08059
Cl        -0.83473       -4.31604        0.18097
C          1.02525       -2.33845        0.08342
F          1.95928       -3.28611        0.16059
C          1.29357       -0.99928        0.00090
S         -0.19402       -0.11518       -0.07764
C          2.55482       -0.28379       -0.02573
C          3.76751       -0.86642        0.04163
C          5.03162       -0.15538        0.01417
C          5.30153        1.18543       -0.06613
F          4.36493        2.12934       -0.13865
C          6.68618        1.50923       -0.06490
Cl         7.25955        3.13394       -0.15747
C          7.47613        0.40318        0.01709
H          8.55559        0.36595        0.03627
S          6.53316       -1.03220        0.09213
C         -3.45750       -0.38227       -0.05854
C         -3.32824        1.09276       -0.04523
O         -2.34214        1.78428       -0.06720
N         -4.66777        1.57900       -0.05669
C         -5.03042        2.95078       -0.09993
O         -5.93356        3.37582       -0.76615
O         -4.24742        3.65539        0.70693
C         -4.47177        5.06720        0.67990
C         -5.64154        0.53727       -0.10876
O         -6.83299        0.67925       -0.10729
C         -4.83518       -0.70197       -0.10784
C         -5.09917       -2.03036       -0.13070
H         -6.05480       -2.53491       -0.16653
S         -3.62874       -2.92367       -0.09167
H          2.48235        0.79593       -0.10866
H          3.83683       -1.94648        0.12457
H         -3.73935        5.48634        1.36783
H         -5.48816        5.29533        1.00807
H         -4.32032        5.45757       -0.32895
