31
COMP42_220002.log	Energy: -2440945.3502838
C          2.18845        0.98325        0.31610
C          0.76344        1.02622        0.01016
C         -0.03224        2.10297       -0.30578
Cl         0.52936        3.72331       -0.48634
C         -1.40063        1.75187       -0.49457
Cl        -2.62439        2.89708       -0.89038
C         -1.63962        0.41572       -0.31566
S         -0.18049       -0.42472        0.06511
C         -2.90936       -0.29826       -0.43128
S         -3.62342       -0.63362       -1.97617
C         -4.96050       -1.43434       -1.25697
H         -5.75246       -1.85293       -1.86145
C         -4.86635       -1.45133        0.10074
Cl        -6.04009       -2.17611        1.13690
C         -3.68656       -0.79903        0.57823
Cl        -3.30147       -0.64594        2.25023
C          3.10364       -0.00213        0.05835
C          3.14025       -1.31061       -0.65130
O          2.28097       -1.93864       -1.21699
N          4.47552       -1.72180       -0.49829
O          4.95687       -2.82790       -1.12236
C          4.83272       -3.97697       -0.27938
C          5.31760       -0.84198        0.20665
O          6.48452       -1.01893        0.44066
C          4.40190        0.26976        0.56647
C          4.49894        1.45127        1.22408
H          5.36590        1.90259        1.68670
S          2.97584        2.25888        1.22345
H          5.26132       -4.79495       -0.85897
H          3.77935       -4.18091       -0.06515
H          5.39945       -3.83642        0.64596
