56
COMP87_010002.log	Energy: -1558448.6606692
C          0.45932        0.50837        0.17353
C          1.91607        0.63180        0.25818
C          2.68307        1.64965        0.76865
F          2.16637        2.76134        1.30529
C          4.08090        1.46174        0.71069
H          4.78829        2.19207        1.08239
C          4.41027        0.26013        0.13570
S          2.98183       -0.61005       -0.32981
C          5.71198       -0.33323       -0.11525
C          6.88591        0.21364        0.24446
C          8.18862       -0.37489       -0.01884
C          8.52260       -1.48379       -0.75522
H          7.82053       -2.10990       -1.29112
C          9.92016       -1.71615       -0.75038
F         10.46145       -2.74433       -1.40716
C         10.65027       -0.81503       -0.03707
H         11.72028       -0.79020        0.10421
S          9.60936        0.36413        0.66158
C         -0.14328       -0.74337       -0.01144
C         -1.52284       -0.89535       -0.10803
C         -2.35319        0.22146       -0.00800
C         -3.80653        0.46949       -0.10628
C         -3.95453        1.98610       -0.05723
O         -4.92643        2.70166       -0.18622
N         -2.68799        2.45997        0.18731
O         -2.39080        3.78654        0.26952
C         -2.30936        4.36847       -1.03636
C         -1.71810        1.46780        0.16013
C         -0.35737        1.64888        0.26053
C         -4.87472       -0.37620       -0.15006
C         -4.74551       -1.87754        0.07276
O         -3.77175       -2.59566        0.16013
N         -6.03757       -2.33000        0.23222
O         -6.33471       -3.66424        0.17843
C         -6.25509       -4.23886        1.48364
C         -6.98296       -1.36585       -0.10005
C         -8.34570       -1.54647       -0.22219
C         -9.10343       -0.43141       -0.57919
H        -10.17891       -0.53206       -0.68966
C         -8.49315        0.79914       -0.80421
C         -7.11291        0.95649       -0.67731
C         -6.32612       -0.13731       -0.31071
H          5.70763       -1.29315       -0.62750
H          6.88986        1.16276        0.77676
H          0.47395       -1.63494       -0.06838
H         -1.94922       -1.87590       -0.24907
H         -2.02623        5.40719       -0.86282
H         -3.28125        4.32220       -1.53442
H         -1.54289        3.86434       -1.63520
H          0.05347        2.64017        0.39538
H         -6.52262       -5.28721        1.34417
H         -6.96382       -3.75475        2.16413
H         -5.23679       -4.16076        1.87362
H         -8.79017       -2.52202       -0.06296
H         -9.09581        1.65569       -1.08846
H         -6.65357        1.91554       -0.85692
