48
COMP92_400000.log	Energy: -1430575.1435823
C          0.32032       -0.27087        0.27074
C         -1.11436       -0.56536        0.39160
C         -1.81661       -1.33618        1.30171
O         -1.28849       -2.17459        2.20587
C         -3.22304       -1.11923        1.26174
H         -3.90379       -1.63405        1.92899
C         -3.60292       -0.20437        0.32189
S         -2.22994        0.41006       -0.54240
C         -4.94652        0.22188       -0.03480
S         -6.30813       -0.82482        0.22968
C         -7.40314        0.35498       -0.39782
H         -8.46491        0.15290       -0.43805
C         -6.74257        1.48155       -0.80091
O         -7.28047        2.60310       -1.34207
C         -5.33483        1.40905       -0.59268
H         -4.66066        2.22340       -0.83049
C          0.64581        1.12048        0.32925
C          1.92463        1.58713        0.22632
C          2.17717        3.05103        0.34434
O          1.27857        3.84486        0.53658
N          3.50652        3.46283        0.22023
C          3.81148        4.88788        0.33329
C          4.59205        2.61828       -0.01691
O          5.71417        3.07281       -0.12043
C          4.30973        1.16245       -0.13390
C          5.34319        0.28766       -0.39077
H          6.34962        0.67620       -0.50023
C          5.07124       -1.08027       -0.52766
C          3.78524       -1.56201       -0.37999
C          3.55005       -3.00749       -0.58778
O          4.43895       -3.78491       -0.87337
N          2.22804       -3.43449       -0.43773
C          1.94303       -4.86097       -0.59426
C          1.17145       -2.63868       -0.01457
O          0.10872       -3.19357        0.24722
C          1.37604       -1.17590        0.08248
C          2.70969       -0.69185       -0.08415
C          2.99107        0.68717        0.00866
H         -0.61651       -2.69557        1.72064
H         -8.23704        2.49888       -1.40473
H         -0.14593        1.84114        0.50106
H          2.88139        5.41259        0.53757
H          4.25412        5.24630       -0.59829
H          4.52732        5.04668        1.14189
H          5.86081       -1.78585       -0.76192
H          2.81812       -5.32477       -1.04242
H          1.06773       -4.98641       -1.23185
H          1.73626       -5.31367        0.37830
