50
COMP87_230001.log	Energy: -1982833.4265204
C         -0.93602        0.58533       -0.03446
C          0.50827        0.84472       -0.09562
C          1.17137        2.02949       -0.34381
C          0.51873        3.26908       -0.61634
N         -0.01394        4.27771       -0.82370
C          2.59565        1.88558       -0.33557
Cl         3.61262        3.24726       -0.64935
C          3.02750        0.60666       -0.08263
S          1.64325       -0.42502        0.15566
C          4.33648       -0.01756        0.02650
C          5.53108        0.59787       -0.04964
C          6.83802       -0.03235        0.06398
C          7.26765       -1.33762        0.10507
Cl         6.25724       -2.73522        0.01059
C          8.68991       -1.47340        0.21949
C          9.37794       -2.72333        0.28169
N          9.94861       -3.73041        0.33327
C          9.32562       -0.26194        0.26159
H         10.38876       -0.08809        0.34779
S          8.21725        1.03135        0.16295
C         -1.45814       -0.61691       -0.52525
C         -2.82071       -0.89397       -0.47334
C         -3.69991        0.03930        0.07645
C         -5.16641        0.12893        0.24087
C         -5.40632        1.51412        0.82623
O         -6.43991        2.06634        1.14282
N         -4.16402        2.07591        1.00176
H         -4.05238        3.01564        1.34932
C         -3.15043        1.25360        0.54086
C         -1.80067        1.54120        0.51469
C         -6.16662       -0.76784        0.00814
C         -5.90715       -2.24156       -0.29519
O         -4.85932       -2.84736       -0.40131
N         -7.13940       -2.83393       -0.38772
H         -7.23990       -3.81813       -0.57946
C         -8.17380       -1.92043       -0.22940
C         -9.53019       -2.17098       -0.32423
C        -10.39862       -1.09132       -0.17031
H        -11.46971       -1.25521       -0.23966
C         -9.90331        0.18871        0.06033
C         -8.53306        0.42373        0.15849
C         -7.63755       -0.64069        0.02695
H          4.30672       -1.08861        0.19410
H          5.56367        1.67146       -0.19789
H         -0.79451       -1.34552       -0.98067
H         -3.19449       -1.83159       -0.85301
H         -1.42783        2.47877        0.91092
H         -9.90247       -3.17187       -0.51846
H        -10.59096        1.02095        0.16921
H         -8.16333        1.41898        0.34828
