42
COMP51_100030.log	Energy: -1863993.8246295
C         -2.28298       -0.59676        0.05478
C         -0.84145       -0.46354        0.06439
C         -0.10874        0.67782        0.05164
F         -0.68013        1.87938       -0.01387
C          1.31809        0.49673        0.04489
C          2.34164        1.45369        0.05499
C          2.05132        2.89676        0.32321
O          1.26980        3.29208        1.15064
O          2.81265        3.69721       -0.43528
C          2.67519        5.09707       -0.17596
C          3.65528        0.99615       -0.06563
S          5.09678        1.98738       -0.16245
C          6.10332        0.57395       -0.22823
H          7.17466        0.66168       -0.33875
C          5.39605       -0.57174       -0.18842
F          5.95349       -1.77269       -0.31121
C          3.96935       -0.38667       -0.07052
C          2.94743       -1.34355        0.01468
C          3.25529       -2.79020        0.24130
O          4.09439       -3.19795        1.00315
O          2.43768       -3.57944       -0.47016
C          2.58724       -4.98288       -0.23822
C          1.63141       -0.88587        0.00936
S          0.19019       -1.88215        0.02307
C         -3.01497       -1.75694        0.12887
H         -2.58882       -2.75013        0.21528
N         -4.36873       -1.62051        0.09558
C         -4.69575       -0.36097       -0.00222
S         -3.36927        0.75590       -0.05996
C         -6.06932        0.11304       -0.05835
S         -7.40922       -0.99356        0.00622
C         -8.47031        0.35656       -0.11343
H         -9.54384        0.23233       -0.12040
C         -7.75379        1.51358       -0.19150
H         -8.18053        2.50527       -0.27514
N         -6.39311        1.37147       -0.16007
H          3.37680        5.58739       -0.84903
H          2.91839        5.31648        0.86601
H          1.65193        5.41860       -0.38168
H          1.84865       -5.46334       -0.87805
H          2.40065       -5.21589        0.81250
H          3.59703       -5.30272       -0.50406
