56
COMP97_220003.log	Energy: -2774871.7807369
C          1.30060        0.02016        0.28984
C         -0.13151        0.07294        0.65684
C         -0.66509        0.43288        1.85688
Cl         0.28102        0.99233        3.18551
C         -2.08777        0.32077        1.89014
Cl        -3.02056        0.72152        3.28505
C         -2.62879       -0.13013        0.71231
S         -1.36526       -0.42851       -0.44456
C         -4.03328       -0.34832        0.42799
C         -4.52758       -0.68779       -0.77544
C         -5.92048       -0.92783       -1.11590
C         -7.05363       -1.11898       -0.35929
Cl        -7.10680       -1.14321        1.36553
C         -8.22862       -1.33246       -1.14717
Cl        -9.79372       -1.59952       -0.46876
C         -7.98612       -1.30615       -2.48501
H         -8.70215       -1.43705       -3.28315
S         -6.32578       -1.01960       -2.80725
C          1.94491       -1.23411        0.40280
C          3.28206       -1.37422        0.13020
C          3.91619       -2.71140        0.26866
O          3.31243       -3.71262        0.58496
N          5.28771       -2.75614        0.00704
C          5.94075       -4.04191        0.19288
O          6.42076       -4.38447        1.23216
O          5.90443       -4.71686       -0.94089
C          6.52608       -6.00723       -0.89060
C          6.10534       -1.69823       -0.40170
O          7.28190       -1.88000       -0.62648
C          5.43544       -0.37839       -0.53335
C          6.17445        0.71791       -0.91276
H          7.23424        0.59578       -1.10835
C          5.55344        1.97335       -1.03802
C          4.20743        2.11348       -0.78713
C          3.59170        3.45524       -0.92865
O          4.20775        4.45399       -1.23111
N          2.21945        3.50609       -0.69128
C          1.57290        4.79266       -0.89989
O          1.15280        5.14588       -1.96141
O          1.54432        5.45396        0.24135
C          0.90931        6.73698        0.17664
C          1.37707        2.45979       -0.30239
O          0.19559        2.67507       -0.14823
C          2.02889        1.12802       -0.12287
C          3.41884        1.00177       -0.39459
C          4.05001       -0.25625       -0.26660
H         -4.69308       -0.20603        1.27565
H         -3.83914       -0.78700       -1.61434
H          1.37723       -2.10223        0.72185
H          6.39216       -6.43157       -1.88400
H          6.04004       -6.62734       -0.13475
H          7.58656       -5.89970       -0.65381
H          6.12108        2.84964       -1.33218
H          0.99795        7.15393        1.17816
H         -0.13945        6.61803       -0.10293
H          1.41729        7.36957       -0.55398
