27
COMP22_120100.log	Energy: -1981690.4694156
C          2.24191        0.48605        0.02317
C          0.85336        0.04080        0.16078
C          0.39382       -0.98958        0.92862
F          1.15834       -1.71772        1.72822
C         -1.00781       -1.20769        0.83115
Cl        -1.80770       -2.43586        1.73503
C         -1.61967       -0.32800       -0.02051
S         -0.46194        0.76308       -0.70722
C         -3.03310       -0.24506       -0.37655
S         -3.79755       -1.48866       -1.31721
C         -5.31382       -0.67577       -1.29468
H         -6.18803       -1.08922       -1.77538
C         -5.22639        0.49040       -0.60559
F         -6.23742        1.33017       -0.41740
C         -3.92740        0.74767       -0.07779
Cl        -3.57649        2.15395        0.85291
C          3.29797       -0.44525       -0.26802
N          3.14505       -1.75089       -0.46470
S          4.62915       -2.34929       -0.75805
N          5.51703       -0.98859       -0.65792
C          4.66448       -0.00307       -0.38476
C          5.00176        1.37285       -0.22927
H          6.02294        1.72080       -0.32037
C          3.98186        2.22714        0.02780
F          4.19409        3.53121        0.18684
C          2.62053        1.79125        0.15495
F          1.72746        2.74130        0.42047
