36
COMP51_200100.log	Energy: -2204210.9851061
C         -1.61555       -0.51331        0.04432
C         -0.17906       -0.29614        0.03980
C          0.53980        0.86510        0.05117
Cl        -0.24120        2.41642        0.08536
C          1.98077        0.70309        0.03254
C          3.00949        1.66222        0.03830
C          2.78042        3.15266        0.07286
C          4.30733        1.15410        0.00936
S          5.74690        2.16116        0.00496
C          6.76636        0.76587       -0.04061
H          7.84185        0.87386       -0.06061
C          6.07622       -0.39361       -0.05091
Cl         6.92043       -1.91403       -0.10418
C          4.63285       -0.22870       -0.02070
C          3.60515       -1.18461       -0.01780
C          3.84756       -2.67279       -0.04064
C          2.30852       -0.67617        0.00550
S          0.88492       -1.69071        0.00662
C         -2.26968       -1.72508        0.08811
F         -1.64243       -2.89259        0.14305
N         -3.61092       -1.74080        0.07253
C         -4.05455       -0.51151        0.01286
S         -2.84596        0.72278       -0.02409
C         -5.46787       -0.18198       -0.01847
S         -6.68185       -1.42058        0.02790
C         -7.88413       -0.19167       -0.04801
H         -8.94206       -0.40481       -0.05059
C         -7.26961        1.02291       -0.09970
F         -7.91228        2.17784       -0.16412
N         -5.91833        1.04290       -0.08397
H          2.21406        3.49115       -0.79870
H          3.72775        3.69697        0.07913
H          2.22558        3.45151        0.96596
H          4.46774       -2.98758        0.80231
H          4.35806       -2.97870       -0.95807
H          2.90907       -3.22977        0.01596
