29
COMP22_240200.log	Energy: -2403835.7915032
C         -2.03166       -0.03648       -0.08609
C         -0.63108       -0.04088        0.36728
C         -0.17267        0.04121        1.64642
Cl        -1.18156        0.12269        3.05550
C          1.24785        0.05723        1.75264
O          1.93569        0.12873        2.91364
C          1.87026       -0.00828        0.53076
S          0.68656       -0.09021       -0.74929
C          3.29576       -0.01285        0.27222
S          4.48640        0.07152        1.54775
C          5.79064        0.01966        0.43000
H          6.81689        0.04919        0.76606
C          5.33770       -0.05800       -0.84806
Cl         6.34002       -0.13024       -2.26618
C          3.91501       -0.07709       -0.95194
O          3.22335       -0.14945       -2.11044
C         -2.67688        1.21340       -0.35342
N         -2.11605        2.41652       -0.23407
S         -3.26152        3.49285       -0.64743
N         -4.49904        2.49475       -0.98974
C         -4.04337        1.25783       -0.78546
C         -4.77822        0.05410       -0.95733
H         -5.80999        0.08578       -1.28513
C         -4.15101       -1.12685       -0.69776
Cl        -5.04361       -2.60094       -0.90434
C         -2.77346       -1.17825       -0.25921
Cl        -2.05050       -2.71771        0.06107
H          1.31220        0.16911        3.65241
H          3.84392       -0.18712       -2.85191
