50
COMP82_010000.log	Energy: -1415613.0832362
C         -1.04715        0.43365       -0.20447
C         -2.51020        0.52970       -0.25461
C         -3.26660        1.56607       -0.73167
H         -2.86886        2.46897       -1.17718
C         -4.64904        1.29792       -0.62184
F         -5.57331        2.17319       -1.03898
C         -4.97864        0.08657       -0.07469
S         -3.51355       -0.76140        0.33510
C         -6.29810       -0.46261        0.15786
S         -7.76553        0.38597       -0.24811
C         -8.74814       -0.90887        0.32428
H         -9.82476       -0.82795        0.27120
C         -8.01266       -1.94796        0.80627
H         -8.41484       -2.86478        1.21684
C         -6.62567       -1.67571        0.70308
F         -5.70036       -2.55264        1.11361
C         -0.39488       -0.80036       -0.28666
C          0.99371       -0.89839       -0.25621
C          1.77187        0.25432       -0.15404
C          3.21404        0.54103       -0.03211
C          3.29145        2.04949        0.14491
O          4.26333        2.77300        0.25632
N          2.00081        2.52459        0.10570
C          1.66268        3.92093        0.22135
C          1.09216        1.48724       -0.05154
C         -0.28293        1.60345       -0.07356
C          4.31611       -0.26072       -0.07952
C          4.26122       -1.71638       -0.52090
O          3.31272       -2.37911       -0.89939
N          5.54709       -2.19672       -0.47581
C          5.90807       -3.54311       -0.84231
C          6.43009       -1.22048       -0.02955
C          7.78896       -1.37537        0.17918
C          8.49816       -0.27676        0.66485
H          9.56653       -0.36673        0.83718
C          7.84734        0.92249        0.93292
C          6.47684        1.06363        0.71318
C          5.74232       -0.01243        0.21278
H         -0.97653       -1.70927       -0.40689
H          1.46642       -1.86400       -0.33999
H          2.59600        4.47690        0.31410
H          1.04341        4.09749        1.10749
H          1.12243        4.26109       -0.66847
H         -0.76345        2.56916        0.04246
H          4.99851       -4.05091       -1.16428
H          6.33981       -4.07348        0.01338
H          6.63318       -3.53700       -1.66292
H          8.28340       -2.32012       -0.02136
H          8.40889        1.76837        1.31600
H          5.98837        2.00416        0.91241
