29
COMP22_240000.log	Energy: -1827060.6441774
C          2.36639       -0.74287       -0.57968
C          1.06193       -0.07898       -0.46574
C          0.74799        1.24602       -0.56309
Cl         1.86364        2.52762       -0.91359
C         -0.64196        1.52465       -0.41935
O         -1.19142        2.75663       -0.49176
C         -1.39607        0.39651       -0.20991
S         -0.36975       -1.01354       -0.18638
C         -2.83026        0.32303       -0.02107
S         -3.85440        1.73825       -0.02808
C         -5.26975        0.80245        0.24580
H         -6.24108        1.26791        0.32662
C         -4.97285       -0.51991        0.33563
Cl        -6.12712       -1.79147        0.60587
C         -3.58355       -0.80692        0.18539
O         -3.03709       -2.04237        0.23516
C          3.46434       -0.36867        0.26621
N          3.44111        0.56251        1.21919
S          4.92832        0.58364        1.87486
N          5.65528       -0.57866        0.99947
C          4.73688       -1.03246        0.14367
C          4.91757       -2.07872       -0.80642
H          5.88065       -2.56925       -0.88892
C          3.84943       -2.42722       -1.57842
H          3.94825       -3.22130       -2.31172
C          2.58676       -1.76525       -1.46600
H          1.77938       -2.07352       -2.12360
H         -0.48937        3.41025       -0.62111
H         -3.73310       -2.69302        0.40358
