37
COMP47_200003.log	Energy: -1983868.9325934
C         -1.79242       -1.23010       -0.07232
C         -0.57781       -0.44165       -0.11094
C         -0.47362        0.92029       -0.23481
H         -1.32865        1.58067       -0.31652
C          0.87454        1.34967       -0.23617
Cl         1.29392        3.02549       -0.37978
C          1.80784        0.34462       -0.11574
S          0.99338       -1.18557        0.00821
C          3.24730        0.48824       -0.08517
C          4.11995       -0.53017        0.03092
C          5.56912       -0.45014        0.07419
C          6.46282        0.59724        0.10928
Cl         6.03313        2.27841        0.11559
C          7.83002        0.20717        0.15423
H          8.64771        0.91603        0.18572
C          7.97612       -1.14592        0.15388
H          8.89637       -1.71236        0.18160
S          6.45890       -1.94954        0.09885
C         -3.10994       -0.83743       -0.05406
C         -3.87328        0.42815       -0.07200
O         -3.49170        1.56771       -0.17183
N         -5.24005        0.02763       -0.00025
C         -6.34722        0.91530       -0.03588
O         -7.35944        0.68752       -0.63894
O         -6.09380        1.98997        0.70009
C         -7.11167        2.99364        0.66681
C         -5.41032       -1.39043        0.03059
O         -6.45383       -1.97669        0.11271
C         -4.02764       -1.91565       -0.00544
C         -3.45276       -3.14266        0.01460
H         -3.92029       -4.11650        0.05224
S         -1.73487       -2.97994       -0.03406
H          3.59905        1.50984       -0.16678
H          3.72751       -1.54443        0.10063
H         -6.73401        3.80555        1.28602
H         -8.04584        2.59855        1.07191
H         -7.27583        3.33472       -0.35774
