29
COMP43_000001.log	Energy: -717414.3158770
C         -0.19162        0.63135       -0.19686
C          1.25411        0.37532       -0.04737
C          1.74960       -0.81607       -0.59158
C          3.09242       -1.16345       -0.50093
C          3.60778       -2.45615       -1.08039
C          3.94946       -0.27802        0.15498
H          5.00647       -0.51745        0.24363
C          3.46653        0.89915        0.70915
C          2.11882        1.25470        0.62687
C          1.64838        2.53274        1.27851
C         -1.24057       -0.20745        0.05366
C         -1.43728       -1.57426        0.60902
O         -0.64023       -2.39973        0.98330
N         -2.83147       -1.74260        0.60651
H         -3.27259       -2.59127        0.93109
C         -3.56215       -0.65728        0.10480
O         -4.76379       -0.59928        0.01136
C         -2.51654        0.33680       -0.25319
C         -2.47066        1.59414       -0.75854
H         -3.28313        2.23767       -1.06653
S         -0.82788        2.12065       -0.86052
H          1.05827       -1.48630       -1.09322
H          2.81950       -2.99576       -1.61264
H          3.98760       -3.11510       -0.29180
H          4.42890       -2.27645       -1.78306
H          4.15126        1.56090        1.23328
H          2.37987        2.87273        2.01694
H          0.69016        2.40056        1.79002
H          1.52261        3.34112        0.54911
