52
COMP77_340003.log	Energy: -2071620.2446522
C          0.44501       -1.42463       -0.38454
C         -0.80041       -0.68406       -0.35139
C         -1.12271        0.56381       -0.86105
O         -0.30732        1.44667       -1.42837
C         -2.52725        0.84235       -0.79383
C         -3.05684        2.07861       -1.26231
N         -3.51369        3.07799       -1.63394
C         -3.27334       -0.17951       -0.23570
S         -2.24192       -1.48388        0.22767
C         -4.69131       -0.31459        0.03841
C         -5.63692        0.60294       -0.24629
C         -7.05491        0.45714        0.01922
C         -7.78643       -0.57273        0.59312
C         -7.27509       -1.80287        1.08818
N         -6.93952       -2.83041        1.51387
C         -9.19396       -0.29953        0.66010
O        -10.11371       -1.14070        1.17187
C         -9.51030        0.92286        0.14178
H        -10.49238        1.36604        0.07212
S         -8.11213        1.74493       -0.42667
C          1.77608       -1.05208       -0.24123
C          2.28431        0.27562        0.10514
O          1.56156        1.23044        0.38211
C          3.76212        0.41444        0.13194
C          4.42525        1.61037        0.27724
C          3.88629        3.00434        0.23048
O          3.09131        3.40014       -0.58067
O          4.47337        3.76177        1.16319
C          4.08451        5.13978        1.16020
S          6.12543        1.37644        0.35778
C          5.97422       -0.32198        0.11233
C          7.21150       -1.13627       -0.07347
O          7.35516       -1.99249       -0.90443
O          8.16334       -0.72394        0.77596
C          9.42329       -1.38874        0.64349
C          4.65661       -0.69941        0.02867
C          4.13966       -2.08931       -0.10089
O          4.83523       -3.07827        0.00441
C          2.67567       -2.17404       -0.32382
C          2.04020       -3.35788       -0.52934
H          2.50103       -4.33361       -0.60005
S          0.34623       -3.14671       -0.66132
H          0.49808        1.52997       -0.86721
H         -4.97588       -1.25147        0.50907
H         -5.35333        1.53947       -0.71674
H         -9.68500       -1.95026        1.48303
H          4.64610        5.60163        1.97061
H          3.01025        5.22852        1.33455
H          4.33286        5.60285        0.20260
H         10.06938       -0.94135        1.39727
H          9.83273       -1.23457       -0.35760
H          9.30379       -2.45931        0.82238
