33
COMP45_000011.log	Energy: -847008.2735101
C          1.79554        0.78075       -0.03894
C          0.32762        0.76067        0.00091
C         -0.35039       -0.45170       -0.14246
C         -1.73936       -0.42848       -0.10300
N         -2.62634       -1.48016       -0.21945
H         -2.36487       -2.44638       -0.32270
C         -3.91894       -1.00350       -0.12045
C         -5.12847       -1.69612       -0.17702
C         -6.29629       -0.95843       -0.05078
H         -7.25278       -1.47084       -0.09176
C         -6.26935        0.43410        0.12754
C         -5.06392        1.11625        0.18281
C         -3.87289        0.39717        0.05846
C         -2.47393        0.76445        0.06920
C         -1.78181        1.96797        0.21312
C         -0.39933        1.95994        0.18152
C          2.73016       -0.22684        0.01150
C          2.77461       -1.71109        0.13028
O          1.89452       -2.54279        0.17997
N          4.13849       -2.02088        0.16347
H          4.46911       -2.97312        0.22661
C          5.00051       -0.92303        0.05373
O          6.20603       -0.97004        0.04527
C          4.07700        0.23408       -0.04162
C          4.20800        1.57720       -0.14434
H          5.10876        2.17229       -0.20037
S          2.64615        2.30940       -0.18269
H          0.19273       -1.38277       -0.26140
H         -5.15674       -2.77264       -0.31576
H         -7.20391        0.97752        0.22345
H         -5.04351        2.19343        0.32177
H         -2.31700        2.90184        0.35569
H          0.12780        2.89982        0.31453
