48
COMP87_020001.log	Energy: -1867115.9901298
C          0.47568       -0.56504        0.16963
C         -0.97571       -0.78484        0.25554
C         -1.69363       -1.88024        0.66763
Cl        -0.98483       -3.35129        1.26481
C         -3.10198       -1.71167        0.64212
H         -3.79456       -2.47306        0.97887
C         -3.47430       -0.47284        0.18901
S         -2.07569        0.47965       -0.19582
C         -4.80375        0.08604        0.00169
C         -5.93602       -0.63714       -0.02075
C         -7.26857       -0.06480       -0.14194
C         -7.68160        1.22779        0.05617
H         -7.03386        2.03292        0.37974
C         -9.07370        1.38904       -0.17798
Cl        -9.87753        2.91740        0.00050
C         -9.71455        0.24133       -0.53720
H        -10.76358        0.10664       -0.75686
S         -8.60840       -1.07377       -0.60293
C          1.03394        0.64045        0.61015
C          2.39946        0.89085        0.51766
C          3.24861       -0.07408       -0.02592
C          4.70735       -0.19355       -0.22675
C          4.90791       -1.59795       -0.78359
O          5.92283       -2.17386       -1.12049
N          3.65374       -2.14410       -0.90327
H          3.51566       -3.08114       -1.24739
C          2.66457       -1.28975       -0.44026
C          1.31124       -1.55156       -0.36982
C          5.72997        0.69053       -0.04790
C          5.50693        2.17572        0.21821
O          4.47545        2.80616        0.34055
N          6.75287        2.74812        0.25054
H          6.87646        3.73585        0.40690
C          7.76531        1.81119        0.09059
C          9.12862        2.03849        0.13566
C          9.97227        0.93788       -0.00757
H         11.04789        1.08362        0.02260
C          9.44640       -0.33911       -0.17889
C          8.06944       -0.55051       -0.22759
C          7.19801        0.53448       -0.10675
H         -4.86033        1.16411       -0.13530
H         -5.87719       -1.72156        0.04941
H          0.39165        1.39579        1.05202
H          2.79871        1.83272        0.85885
H          0.90528       -2.49038       -0.72926
H          9.52496        3.03791        0.28514
H         10.11457       -1.18816       -0.27988
H          7.67593       -1.54403       -0.37335
