40
COMP83_000011.log	Energy: -694276.2735274
C         -3.04557       -0.06794        0.01960
C         -4.52731       -0.11830        0.06358
C         -5.18607       -1.01754        0.90942
C         -6.57483       -1.06501        0.95257
H         -7.06851       -1.76378        1.62142
C         -7.33014       -0.21508        0.14919
H         -8.41484       -0.25330        0.18271
C         -6.68614        0.68352       -0.69680
C         -5.29707        0.73169       -0.73830
H         -4.80137        1.41813       -1.41937
C         -2.28603       -1.24210        0.05148
C         -0.89524       -1.22207        0.00537
C         -0.21841       -0.00351       -0.07831
C          1.19933        0.41223       -0.07559
C          1.15521        1.93681       -0.08183
O          2.05697        2.75086       -0.10414
N         -0.17303        2.28021       -0.11100
H         -0.46956        3.24300       -0.12655
C         -1.00319        1.16839       -0.08925
C         -2.38334        1.16449       -0.04888
C          2.36223       -0.29987       -0.09758
C          2.41005       -1.79924       -0.36765
O          1.51383       -2.58722       -0.59785
N          3.73700       -2.14661       -0.36001
H          4.03588       -3.09349       -0.53099
C          4.56172       -1.06406       -0.08715
C          5.93848       -1.07663        0.04415
C          6.56854        0.12631        0.35808
H          7.64872        0.15063        0.46695
C          5.82397        1.28777        0.53949
C          4.43657        1.28404        0.39990
C          3.77689        0.09814        0.06933
H         -4.60253       -1.66742        1.55520
H         -7.26735        1.34388       -1.33359
H         -2.79351       -2.20115        0.08253
H         -0.34230       -2.14803        0.01089
H         -2.94041        2.09653       -0.03315
H          6.50305       -1.99438       -0.08758
H          6.32567        2.21699        0.78921
H          3.87517        2.19564        0.53041
