33
COMP27_130200.log	Energy: -2021461.6699377
C         -2.80248        0.17178        0.06118
C         -1.38288       -0.10649       -0.21213
C         -0.89372       -1.08785       -1.04313
C         -1.71338       -1.95574       -1.82299
N         -2.39101       -2.65383       -2.45203
C          0.52748       -1.12930       -1.03426
F          1.19553       -2.00224       -1.78665
C          1.12821       -0.21618       -0.20997
S         -0.10251        0.72417        0.58078
C          2.53125        0.04647        0.05538
C          3.55583       -0.60078       -0.53106
C          4.95914       -0.33657       -0.26707
C          5.55844        0.56319        0.57325
F          4.88912        1.41145        1.35194
C          6.98369        0.53794        0.56451
C          7.79922        1.39184        1.36522
N          8.46165        2.08546        2.01515
C          7.46183       -0.40646       -0.30689
H          8.49734       -0.63738       -0.51174
S          6.19535       -1.24234       -1.09374
C         -3.56953       -0.81478        0.76180
N         -3.10439       -1.97476        1.22377
S         -4.36710       -2.72305        1.91908
N         -5.53568       -1.62120        1.67735
C         -4.96281       -0.60909        1.02350
C         -5.60176        0.58682        0.60190
H         -6.65411        0.74504        0.80277
C         -4.85780        1.51811       -0.05814
Cl        -5.63205        2.98100       -0.57652
C         -3.45481        1.31240       -0.33906
Cl        -2.59814        2.52369       -1.23176
H          2.73719        0.82592        0.78169
H          3.34982       -1.37828       -1.25941
