58
COMP82_240003.log	Energy: -2198829.0740660
C          0.97867        0.53921        0.25417
C          2.44069        0.62766        0.36987
C          3.22859        1.62604        0.87358
Cl         2.66829        3.10950        1.58786
C          4.62481        1.34423        0.83822
O          5.59074        2.17298        1.29112
C          4.90894        0.11516        0.29658
S          3.43352       -0.68678       -0.17263
C          6.21536       -0.47965        0.10655
S          7.69574        0.33750        0.54691
C          8.66334       -0.98202        0.02148
H          9.74042       -0.95053        0.09732
C          7.89436       -1.99080       -0.46398
Cl         8.49420       -3.49765       -1.09020
C          6.49491       -1.71699       -0.42103
O          5.52626       -2.55926       -0.84343
C          0.32098       -0.65929        0.55573
C         -1.05425       -0.77768        0.42601
C         -1.80926        0.31402       -0.01011
C         -3.24912        0.55336       -0.14215
C         -3.38161        2.00145       -0.54592
O         -4.38125        2.59849       -0.85694
N         -2.07006        2.52787       -0.61250
C         -1.71069        3.83446       -0.97203
O         -0.57185        4.16922       -1.20000
O         -2.75959        4.64452       -1.00885
C         -2.46399        5.98921       -1.39051
C         -1.13377        1.52035       -0.27893
C          0.23950        1.64993       -0.17237
C         -4.33234       -0.26759       -0.00762
C         -4.20898       -1.77131       -0.06910
O         -3.22539       -2.42707       -0.30536
N         -5.51288       -2.29359        0.08457
C         -5.87895       -3.64607        0.05982
O         -7.02554       -4.02144       -0.01678
O         -4.82528       -4.44594        0.15125
C         -5.12610       -5.84141        0.09731
C         -6.43943       -1.23216        0.22916
C         -7.80303       -1.32229        0.46213
C         -8.50683       -0.13540        0.65248
H         -9.57682       -0.18316        0.83065
C         -7.86045        1.09657        0.62426
C         -6.49421        1.17376        0.38256
C         -5.76362        0.00230        0.16211
H          5.18371        2.98560        1.62389
H          5.93151       -3.36863       -1.18527
H          0.89258       -1.51056        0.91161
H         -1.53225       -1.71710        0.65349
H         -3.42633        6.49834       -1.40001
H         -2.00434        6.01472       -2.38084
H         -1.78837        6.45184       -0.66746
H          0.72376        2.57900       -0.43132
H         -4.16188       -6.34143        0.17295
H         -5.61637       -6.09012       -0.84645
H         -5.77618       -6.12632        0.92758
H         -8.29684       -2.28210        0.49154
H         -8.42287        2.01055        0.78500
H         -6.00565        2.13452        0.34648
