56
COMP87_020002.log	Energy: -2010725.7716962
C         -0.08851       -0.62438       -0.18057
C         -1.54710       -0.80640       -0.20888
C         -2.30239       -1.92358       -0.46628
Cl        -1.64671       -3.47890       -0.88495
C         -3.70485       -1.71873       -0.40952
H         -4.42537       -2.51094       -0.57083
C         -4.03382       -0.42198       -0.11138
S         -2.60188        0.53282        0.11409
C         -5.34464        0.19318        0.02798
C         -6.49051       -0.35816       -0.40574
C         -7.80684        0.23180       -0.21281
C         -8.20235        1.21219        0.66061
H         -7.55210        1.67877        1.39008
C         -9.58091        1.52765        0.52496
Cl       -10.36287        2.73080        1.50213
C        -10.22925        0.79683       -0.42511
H        -11.27121        0.84840       -0.70548
S         -9.14686       -0.30269       -1.18463
C          0.49685        0.50159       -0.77065
C          1.87404        0.71114       -0.74820
C          2.70535       -0.21929       -0.12505
C          4.16501       -0.37840        0.05346
C          4.34052       -1.76298        0.66502
O          5.33433       -2.42512        0.87784
N          3.06472       -2.18233        0.96826
O          2.79011       -3.42638        1.45213
C          2.82809       -4.39993        0.40164
C          2.08620       -1.35141        0.43977
C          0.72742       -1.57430        0.44946
C          5.20343        0.48131       -0.14105
C          5.00186        1.95158       -0.48740
O          4.01542        2.56509       -0.83541
N          6.22882        2.54249       -0.27081
O          6.50557        3.79541       -0.74764
C          6.13906        4.78145        0.21852
C          7.24202        1.60476       -0.09303
C          8.59933        1.84785       -0.03947
C          9.43459        0.74474        0.13635
H         10.50924        0.89298        0.18310
C          8.90475       -0.53803        0.24306
C          7.52910       -0.75957        0.18249
C          6.66455        0.32500        0.02176
H         -5.37321        1.16889        0.50891
H         -6.45676       -1.30181       -0.94671
H         -0.13205        1.22144       -1.28514
H          2.29551        1.58574       -1.21793
H          2.56348       -5.34140        0.88387
H          3.83401       -4.46460       -0.02182
H          2.09429       -4.15694       -0.37481
H          0.31655       -2.45026        0.93609
H          6.43592        5.73228       -0.22630
H          6.67503        4.62020        1.15984
H          5.05891        4.76705        0.38632
H          8.98559        2.85446       -0.14974
H          9.56958       -1.38623        0.36977
H          7.13124       -1.75913        0.26036
