34
COMP74_000000.log	Energy: -1527852.7397790
C         -0.70093        1.23928       -0.14782
C         -2.01061        0.60520       -0.05039
C         -2.45711       -0.55596       -0.62200
H         -1.82190       -1.20304       -1.20695
C         -3.82692       -0.78563       -0.33242
S         -4.96335       -2.03481       -0.72637
C         -6.20777       -1.21918        0.17164
H         -7.19576       -1.65609        0.22461
C         -5.79137       -0.05737        0.74724
H         -6.42717        0.58230        1.34589
C         -4.41920        0.18970        0.45167
S         -3.28127        1.42499        0.86056
C          0.58717        0.72934       -0.17977
C          0.98228       -0.70056       -0.11954
O          0.16936       -1.61023       -0.19506
C          2.44179       -0.95150        0.02257
C          3.01268       -2.18890        0.19245
C          2.38780       -3.54450        0.31858
S          4.73813       -2.03981        0.28532
C          4.71292       -0.32376        0.08911
C          5.97946        0.47320        0.07314
C          3.41923        0.11050       -0.03601
C          3.04157        1.52232       -0.20365
O          3.85033        2.43446       -0.28908
C          1.58026        1.76872       -0.23177
C          1.05252        3.02346       -0.25651
H          1.60282        3.95361       -0.28912
S         -0.65637        2.98210       -0.21778
H          1.31205       -3.46474        0.17399
H          2.58329       -3.97145        1.30851
H          2.79717       -4.23409       -0.42752
H          6.85132       -0.15910        0.26095
H          5.93986        1.26213        0.82874
H          6.10395        0.97090       -0.89286
