36
COMP62_230000.log	Energy: -1742261.9371182
C         -2.37976       -0.41493       -0.35901
C         -0.97992       -0.74736       -0.11479
C         -0.43513       -1.80594        0.55990
Cl        -1.35136       -3.04045        1.33630
C          0.98957       -1.75404        0.63776
C          1.75968       -2.74114        1.32190
N          2.37567       -3.55300        1.87424
C          1.51287       -0.63416        0.01413
S          0.25361        0.33540       -0.65467
C          2.91482       -0.27049       -0.14724
S          4.12840       -1.47972       -0.38522
C          5.37548       -0.30944       -0.51478
H          6.40307       -0.60646       -0.66827
C          4.89043        0.95434       -0.38668
Cl         5.86703        2.37344       -0.45490
C          3.47491        0.99424       -0.17728
C          2.75463        2.21415       -0.00940
N          2.18620        3.21719        0.11053
C         -3.04142        0.72399       -0.01371
C         -2.89839        1.97055        0.73471
O         -1.96296        2.48697        1.30713
N         -4.20724        2.53669        0.65807
C         -4.53787        3.80839        1.26285
C         -5.06213        1.72137       -0.04785
H         -6.09886        2.00349       -0.18162
C         -4.39276        0.61788       -0.47509
C         -4.54388       -0.65592       -1.16889
O         -5.46961       -1.17859       -1.75229
N         -3.24790       -1.24824       -1.04970
C         -2.91941       -2.48672       -1.72323
H         -3.62625        4.18593        1.72925
H         -5.31006        3.68935        2.02894
H         -4.87786        4.52451        0.50889
H         -3.69473       -2.65835       -2.47177
H         -2.90470       -3.33005       -1.02779
H         -1.94580       -2.40442       -2.21378
