30
COMP51_100210.log	Energy: -2154878.5975663
C         -0.79701        0.77207       -0.00265
C          0.63920        0.56915       -0.00285
C          1.27726       -0.63236       -0.00463
F          0.63399       -1.80540       -0.00690
C          2.70582       -0.59229       -0.00273
C          3.60520       -1.65848       -0.00366
H          3.24961       -2.68326       -0.00646
C          4.95498       -1.34478       -0.00112
S          6.29887       -2.47041       -0.00122
C          7.44820       -1.15681        0.00283
H          8.51121       -1.35013        0.00395
C          6.84201        0.04586        0.00432
F          7.48416        1.21597        0.00741
C          5.40430       -0.00045        0.00219
C          4.50309        1.06268        0.00303
H          4.85789        2.08786        0.00584
C          3.15252        0.74925        0.00060
S          1.81956        1.88357        0.00074
C         -1.55219        1.92595       -0.00205
Cl        -0.91991        3.53390       -0.00195
N         -2.89983        1.79005       -0.00116
C         -3.22179        0.52693       -0.00114
S         -1.89773       -0.58304       -0.00236
C         -4.59704        0.05756       -0.00003
S         -5.93249        1.16641        0.00110
C         -6.99845       -0.18327        0.00289
H         -8.07244       -0.07115        0.00427
C         -6.27105       -1.33646        0.00231
Cl        -6.96637       -2.91816        0.00398
N         -4.91794       -1.20689        0.00076
