29
COMP22_140100.log	Energy: -1499282.5134681
C         -2.02707        0.40554       -0.20845
C         -0.63995       -0.03954       -0.32790
C         -0.18919       -1.22676       -0.81964
F         -0.95024       -2.18569       -1.36223
C          1.21463       -1.40984       -0.75808
O          1.84636       -2.51971       -1.20891
C          1.86141       -0.33376       -0.20553
S          0.70977        0.90529        0.23011
C          3.28439       -0.17475        0.00391
S          4.44422       -1.40492       -0.45127
C          5.77566       -0.46187        0.10857
H          6.79154       -0.82091        0.03974
C          5.34049        0.71730        0.61071
F          6.11159        1.68685        1.13022
C          3.93075        0.89920        0.56071
O          3.29822        2.00754        1.01300
C         -3.04709       -0.45865        0.32611
N         -2.85434       -1.69315        0.78030
S         -4.30473       -2.23464        1.27977
N         -5.22954       -0.93573        0.94956
C         -4.41667       -0.01892        0.42893
C         -4.79620        1.29156        0.01783
H         -5.81896        1.63753        0.09580
C         -3.81020        2.08707       -0.46251
F         -4.06131        3.32977       -0.86891
C         -2.44766        1.65221       -0.57695
F         -1.59687        2.54450       -1.07986
H          1.18097       -3.14539       -1.52483
H          3.96060        2.62494        1.35071
