48
COMP71_300013.log	Energy: -1976517.8140146
C          0.01933       -1.98024        0.25312
C          1.37129       -1.43443        0.18128
C          1.86232       -0.31068        0.78321
C          1.10633        0.56206        1.61768
N          0.55210        1.30687        2.31258
C          3.26251       -0.07713        0.51087
C          4.06206        0.97078        0.96366
H          3.64800        1.74581        1.60112
C          5.39076        0.97516        0.56781
S          6.60243        2.16886        0.98667
C          7.80418        1.32912        0.07136
H          8.81314        1.71565        0.01776
C          7.33637        0.20232       -0.52853
C          8.13182       -0.66251       -1.33790
N          8.74612       -1.38929       -2.00036
C          5.93201       -0.03695       -0.26240
C          5.13341       -1.08628       -0.71261
H          5.54674       -1.86192       -1.34980
C          3.80464       -1.08969       -0.31660
S          2.59253       -2.27355       -0.74370
C         -1.19227       -1.36174        0.04383
C         -1.40808        0.03004       -0.43198
O         -0.52415        0.71889       -0.90110
C         -2.81941        0.49132       -0.33513
C         -3.21306        1.79830       -0.47877
C         -2.36528        3.02321       -0.60254
O         -2.53857        3.87646       -1.43861
O         -1.45714        3.04998        0.36353
C         -0.48399        4.09184        0.28305
S         -4.91962        1.95196       -0.44729
C         -5.13148        0.26390       -0.16415
C         -6.50083       -0.24852        0.12715
O         -6.76463       -1.09646        0.93778
O         -7.40730        0.42514       -0.59699
C         -8.77043        0.08289       -0.33283
C         -3.92648       -0.39807       -0.14399
C         -3.71760       -1.86648        0.00084
O         -4.60367       -2.69132       -0.06931
C         -2.29810       -2.25533        0.21401
C         -1.91243       -3.52359        0.53789
H         -2.56171       -4.37251        0.70424
S         -0.21221       -3.65206        0.66923
H          0.18308        3.91940        1.12573
H         -0.96486        5.07011        0.35544
H          0.05831        4.01905       -0.66253
H         -9.36345        0.72067       -0.98648
H         -9.01264        0.27129        0.71577
H         -8.94576       -0.97130       -0.55780
