44
COMP67_200003.log	Energy: -1911676.7679377
C         -1.89765        0.81086        0.23476
C         -0.63421        0.12845        0.38601
C         -0.52032       -1.20624        0.71128
H         -1.36543       -1.84085        0.94987
C          0.81290       -1.65675        0.65382
Cl         1.24383       -3.29159        1.03700
C          1.72915       -0.69774        0.27352
S          0.92096        0.80831        0.00079
C          3.15905       -0.87284        0.13234
C          4.03152        0.11705       -0.13472
C          5.46980        0.00290       -0.29561
C          6.33534       -1.06602       -0.36891
Cl         5.87122       -2.73601       -0.29249
C          7.70204       -0.70980       -0.53759
H          8.49946       -1.43817       -0.61264
C          7.87572        0.63895       -0.59346
H          8.80242        1.18199       -0.71505
S          6.38542        1.47948       -0.44271
C         -3.13233        0.23335        0.09924
C         -3.78543       -1.07073        0.04730
O         -3.38248       -2.19092        0.25926
N         -5.15134       -0.72302       -0.30461
C         -6.26314       -1.56325       -0.48068
O         -7.35642       -1.12647       -0.75195
O         -5.94948       -2.83717       -0.31906
C         -7.03681       -3.75175       -0.48199
C         -5.29357        0.65824       -0.45646
H         -6.25114        1.06476       -0.74593
C         -4.10417        1.23929       -0.20606
C         -3.45238        2.54118       -0.23535
O         -3.88236        3.65299       -0.38702
N         -2.05792        2.20453        0.03945
C         -1.15178        3.17743        0.52026
O         -0.41295        2.99877        1.45664
O         -1.24033        4.28325       -0.19957
C         -0.46417        5.38376        0.28068
H          3.50461       -1.89068        0.26863
H          3.64940        1.13230       -0.23756
H         -6.59712       -4.73893       -0.35099
H         -7.47517       -3.65049       -1.47704
H         -7.80452       -3.56750        0.27278
H         -0.73350        6.22269       -0.35861
H          0.60166        5.15965        0.19672
H         -0.70893        5.59762        1.32311
