39
COMP47_340002.log	Energy: -1546045.8791871
C         -2.51246        0.88263       -0.32899
C         -1.21108        0.25977       -0.24939
C         -0.84026       -1.05189       -0.50581
O         -1.60383       -2.08394       -0.83707
C          0.58188       -1.23507       -0.45854
C          1.16773       -2.51208       -0.69031
N          1.66983       -3.54196       -0.87154
C          1.28617       -0.08207       -0.16255
S          0.19808        1.23630        0.07802
C          2.70346        0.17982        0.00129
C          3.68818       -0.73344       -0.11501
C          5.10444       -0.46705        0.04453
C          5.79951        0.70181        0.32097
C          5.23940        1.99290        0.51911
N          4.86017        3.07713        0.69297
C          7.21997        0.51192        0.39745
O          8.11176        1.48879        0.65300
C          7.58191       -0.78638        0.17956
H          8.58253       -1.19213        0.18189
S          6.21173       -1.77885       -0.11883
C         -3.78552        0.39271       -0.16689
C         -4.41910       -0.87993        0.20935
O         -3.93969       -1.98251        0.41442
N         -5.77271       -0.57930        0.31598
O         -6.70809       -1.55176        0.46896
C         -7.05550       -1.70651        1.84894
C         -6.12614        0.74848       -0.02871
O         -7.24332        1.19016       -0.03746
C         -4.81092        1.37205       -0.31238
C         -4.35596        2.61504       -0.59124
H         -4.91136        3.53205       -0.73074
S         -2.63073        2.59536       -0.70854
H         -2.48230       -2.06832       -0.38134
H          2.95081        1.21185        0.23331
H          3.44087       -1.76546       -0.34409
H          7.65401        2.33237        0.77464
H         -7.80816       -2.49490        1.85706
H         -7.47971       -0.77849        2.24316
H         -6.18192       -2.01532        2.43081
