46
COMP67_310003.log	Energy: -1575118.5306995
C         -2.31023       -0.74720       -0.12670
C         -0.88214       -0.88340        0.05098
C         -0.19028       -1.90276        0.65147
F         -0.76475       -2.97337        1.18198
C          1.21305       -1.72378        0.70329
C          2.07649       -2.68511        1.29958
N          2.78562       -3.46426        1.78444
C          1.60016       -0.52064        0.12454
S          0.22702        0.35398       -0.44199
C          2.90557        0.08533       -0.05748
C          4.07928       -0.47272        0.29890
C          5.38980        0.12302        0.11640
C          5.79293        1.31906       -0.45710
C          4.93520        2.29501       -1.03735
N          4.23147        3.08702       -1.50931
C          7.20978        1.48148       -0.41147
F          7.79520        2.56265       -0.90980
C          7.87345        0.45110        0.17263
H          8.93827        0.35088        0.31980
S          6.76617       -0.75777        0.68885
C         -3.06772        0.38215       -0.08613
C         -2.95382        1.82320        0.12932
O         -1.99433        2.54557        0.22848
N         -4.34748        2.23643        0.17340
C         -4.88476        3.52399        0.34265
O         -6.07602        3.72179        0.36054
O         -3.93666        4.43491        0.47364
C         -4.40581        5.77476        0.65163
C         -5.20004        1.14054        0.01162
H         -6.26850        1.29355        0.05469
C         -4.45414        0.03111       -0.15943
C         -4.57061       -1.41898       -0.29396
O         -5.51950       -2.13939       -0.44790
N         -3.17761       -1.85248       -0.25575
C         -2.75070       -3.10837       -0.75417
O         -1.78260       -3.24704       -1.45842
O         -3.55785       -4.06562       -0.33533
C         -3.26869       -5.36752       -0.85336
H          2.89268        1.06534       -0.52506
H          4.08840       -1.45235        0.76730
H         -3.50539        6.38368        0.70966
H         -4.98627        5.85410        1.57333
H         -5.02485        6.07745       -0.19548
H         -4.03556       -6.01774       -0.43639
H         -2.27365       -5.68623       -0.53564
H         -3.31945       -5.36214       -1.94426
