49
COMP79_000022.log	Energy: -1838335.0322902
C         -0.26832       -1.75164        0.30366
C          1.06846       -1.19138        0.17589
C          1.56053       -0.00122        0.65830
C          2.91798        0.18227        0.33076
C          3.45915       -0.87148       -0.36102
S          2.31489       -2.10453       -0.66607
C          4.86384       -0.60727       -0.61812
C          5.19874        0.61667       -0.09865
C          3.97730        1.26009        0.56728
O          3.75044        2.47029       -0.09744
C          2.51831        3.10426        0.20603
O          4.07084        1.43298        1.95527
C          5.12922        2.26510        2.38714
C          6.54157        0.98085       -0.37086
C          7.19505        0.00389       -1.07083
H          8.22356        0.00031       -1.40455
S          6.17794       -1.35588       -1.42591
C         -1.52123       -1.16320        0.25940
C         -1.82479        0.27396        0.02303
O         -0.97002        1.14295       -0.05446
C         -3.26368        0.58327       -0.10871
C         -3.75292        1.83304       -0.37341
O         -3.03455        2.93840       -0.54988
C         -3.70229        4.13145       -0.91894
S         -5.51407        1.85208       -0.44179
C         -5.56709        0.12725       -0.09542
O         -6.71154       -0.54342       -0.01202
C         -7.92929        0.16645       -0.14929
C         -4.31553       -0.40056        0.05323
C         -4.02833       -1.81245        0.33893
O         -4.88163       -2.66990        0.49536
C         -2.57788       -2.13006        0.40376
C         -2.12793       -3.40541        0.56179
H         -2.73641       -4.29164        0.67667
S         -0.41851       -3.47146        0.55129
H          0.94929        0.69419        1.21298
H          2.58012        4.10450       -0.22651
H          2.36722        3.18506        1.28863
H          1.67164        2.56973       -0.24051
H          5.14989        3.20899        1.83048
H          6.09840        1.76017        2.28453
H          4.94646        2.46998        3.44353
H          7.00552        1.91496       -0.07946
H         -2.92442        4.88763       -1.01778
H         -4.41488        4.44151       -0.14450
H         -4.22107        4.01130       -1.87763
H         -8.71790       -0.57633       -0.03594
H         -8.00544        0.63188       -1.13975
H         -8.02967        0.93056        0.63117
