41
COMP41_100031.log	Energy: -1673811.7521765
C          2.79116       -0.68525       -0.11555
C          1.37267       -0.38737       -0.05058
C          0.35626       -1.29022       -0.10962
F          0.58761       -2.59382       -0.28044
C         -0.96898       -0.74277       -0.05938
C         -2.21870       -1.38349       -0.07871
C         -2.42027       -2.85531        0.06379
O         -3.30352       -3.46592       -0.49537
O         -1.57733       -3.39744        0.94117
C         -1.70698       -4.80864        1.12533
C         -3.35293       -0.58055       -0.18149
S         -4.99993       -1.14825       -0.34865
C         -5.58694        0.48767       -0.34379
H         -6.63966        0.69702       -0.47090
C         -4.60343        1.40169       -0.23253
F         -4.81962        2.71218       -0.29309
C         -3.28063        0.83580       -0.11441
C         -2.03945        1.46965        0.02694
C         -1.94329        2.93075        0.33929
O         -2.67010        3.51506        1.10192
O         -0.90276        3.49063       -0.29051
C         -0.63301        4.85455        0.04491
C         -0.89290        0.67219       -0.01509
S          0.75714        1.25495        0.03148
C          3.88379        0.14280       -0.03694
C          4.16591        1.59252        0.14369
O          3.41825        2.53331        0.27465
N          5.56295        1.67856        0.13390
H          6.04826        2.55825        0.23850
C          6.23073        0.45821       -0.03283
O          7.42621        0.30615       -0.07030
C          5.12826       -0.53190       -0.14205
C          5.01956       -1.87291       -0.30188
H          5.80174       -2.61256       -0.40396
S          3.35933       -2.33513       -0.32654
H         -0.93439       -5.07970        1.84309
H         -1.55441       -5.33052        0.17800
H         -2.69842       -5.05034        1.51469
H          0.27962        5.10831       -0.49174
H         -0.48879        4.95985        1.12221
H         -1.46210        5.49043       -0.27331
