34
COMP72_030001.log	Energy: -1642799.8157199
C         -0.83049       -0.92732       -0.58268
C          0.46390       -0.25554       -0.50542
C          0.80259        1.02481       -0.84709
H          0.09081        1.76000       -1.19007
C          2.18754        1.29261       -0.66847
C          2.75776        2.57525       -0.93883
N          3.20367        3.62014       -1.17003
C          2.90443        0.21060       -0.18698
S          1.85835       -1.14053        0.04560
C          4.33066        0.11872        0.09603
S          5.50092        0.83388       -0.95681
C          6.80897        0.28587        0.01285
H          7.82629        0.52424       -0.26482
C          6.38518       -0.42208        1.09453
H          7.04030       -0.85259        1.84091
C          4.96210       -0.52410        1.14641
C          4.27933       -1.20062        2.20362
N          3.75073       -1.75964        3.07116
C         -2.11757       -0.47543       -0.35588
C         -2.52858        0.89310        0.05867
O         -1.76455        1.83795        0.15332
C         -3.97599        1.04343        0.34331
C         -4.54758        2.20629        0.77583
H         -4.04489        3.14232        0.97693
S         -6.24403        2.03224        0.97957
C         -6.20758        0.38965        0.47833
H         -7.10578       -0.21072        0.43115
C         -4.93744       -0.00547        0.17075
C         -4.55366       -1.35380       -0.29204
O         -5.35068       -2.25812       -0.46105
C         -3.09451       -1.52175       -0.52012
C         -2.54776       -2.71856       -0.87311
H         -3.07886       -3.64453       -1.04604
S         -0.84865       -2.61277       -1.02162
