43
COMP21_400030.log	Energy: -1584002.8873344
C         -2.87875        1.10549       -0.25241
C         -1.47359        0.70505       -0.13057
C         -0.87068       -0.52143       -0.24580
O         -1.42525       -1.71208       -0.50387
C          0.57463       -0.46050       -0.15446
C          1.47790       -1.52476       -0.20945
C          1.05735       -2.96432       -0.22721
O          1.33620       -3.74208       -1.10797
O          0.41650       -3.29084        0.89665
C         -0.08394       -4.62541        0.94016
C          2.83548       -1.22074       -0.22344
S          4.13634       -2.37649       -0.39173
C          5.31025       -1.09573       -0.26759
H          6.36343       -1.32447       -0.36793
C          4.76140        0.13373       -0.11854
O          5.41328        1.31841       -0.09104
C          3.31440        0.10134       -0.05618
C          2.40465        1.15690        0.10914
C          2.84280        2.52236        0.53795
O          3.58299        2.74721        1.46105
O          2.24479        3.47751       -0.19300
C          2.52828        4.81737        0.21020
C          1.04677        0.86233       -0.00912
S         -0.27850        1.99402        0.08487
C         -3.98765        0.21771       -0.00661
N         -3.91312       -1.07397        0.31633
S         -5.43680       -1.62902        0.49330
N         -6.25314       -0.26560        0.17729
C         -5.35242        0.68312       -0.08536
C         -5.64499        2.03456       -0.41495
H         -6.67409        2.36933       -0.46603
C         -4.58335        2.85348       -0.65644
H         -4.75226        3.89351       -0.91702
C         -3.23422        2.39715       -0.57759
H         -2.45465        3.11987       -0.79564
H         -2.36463       -1.70736       -0.21832
H         -0.54766       -4.73249        1.92018
H          0.72619       -5.34788        0.81668
H         -0.82257       -4.77317        0.14809
H          6.36389        1.15891       -0.12187
H          1.92655        5.45125       -0.43999
H          3.59160        5.03241        0.08103
H          2.25717        4.96965        1.25746
