38
COMP62_030002.log	Energy: -1259777.0698827
C          1.50954        0.60845       -0.12997
C          0.18318        0.04716       -0.10532
C         -0.08536       -1.30097       -0.11116
H          0.68995       -2.06198       -0.12392
C         -1.47669       -1.57157       -0.08561
C         -2.00298       -2.90071       -0.06066
N         -2.41799       -3.98290       -0.04399
C         -2.25725       -0.42533       -0.05553
S         -1.27343        0.99041       -0.05734
C         -3.71072       -0.32375       -0.04233
S         -4.69006       -1.35184       -1.02812
C         -6.13991       -0.61587       -0.47476
H         -7.09590       -0.96584       -0.83889
C         -5.90172        0.37842        0.42312
H         -6.67097        0.96770        0.90533
C         -4.50751        0.55320        0.67365
C         -4.01132        1.52095        1.60057
N         -3.63784        2.31825        2.35503
C          2.72239       -0.03448       -0.07961
C          3.30822       -1.35975       -0.04013
O          2.85300       -2.48926       -0.02235
N          4.69962       -1.05307        0.00061
O          5.67089       -2.00255       -0.11484
C          5.87137       -2.67222        1.13477
C          4.96610        0.29270       -0.06854
H          5.98810        0.64390       -0.08163
C          3.77388        0.94646       -0.10951
C          3.18158        2.27558       -0.16021
O          3.61272        3.40362       -0.17522
N          1.78336        1.95971       -0.23509
O          0.83064        2.91698       -0.06507
C          0.62090        3.70181       -1.25487
H          6.66463       -3.39431        0.93851
H          4.95839       -3.18940        1.43949
H          6.18883       -1.96100        1.90502
H          0.76083        4.74813       -0.98184
H         -0.39902        3.52960       -1.61040
H          1.34091        3.42131       -2.02401
