36
COMP35_000020.log	Energy: -790360.2140146
C          2.27245       -0.22934       -0.08214
C          0.81373       -0.49768       -0.15366
C         -0.08080        0.42650        0.38148
C         -1.43590        0.14283        0.27487
N         -2.51727        0.87144        0.72465
O         -2.42951        2.14906        1.20262
C         -2.39311        3.08650        0.12108
C         -3.69968        0.25638        0.36257
C         -5.01354        0.66600        0.57439
C         -6.01740       -0.17612        0.11695
H         -7.05505        0.10746        0.26514
C         -5.72194       -1.38885       -0.52516
C         -4.40726       -1.78401       -0.72870
C         -3.37534       -0.95350       -0.28877
C         -1.92742       -1.02530       -0.34538
C         -1.01314       -1.94404       -0.86055
C          0.34353       -1.67663       -0.76479
C          3.17313       -1.18381        0.39501
F          2.73334       -2.37282        0.81556
C          4.53697       -0.92847        0.45937
F          5.35076       -1.87594        0.92991
C          5.05392        0.28926        0.05164
H          6.11726        0.48720        0.10457
C          4.17420        1.24690       -0.42289
F          4.63258        2.43268       -0.83088
C          2.81039        0.99357       -0.48950
F          2.01358        1.95517       -0.96797
H          0.26041        1.33133        0.87095
H         -2.31470        4.06553        0.59548
H         -3.31148        3.02624       -0.47243
H         -1.52125        2.90644       -0.51675
H         -5.23182        1.59829        1.08390
H         -6.53341       -2.02481       -0.86435
H         -4.18379       -2.72358       -1.22572
H         -1.35720       -2.85592       -1.33923
H          1.05903       -2.38368       -1.16962
