53
COMP99_000013.log	Energy: -1596663.0332847
C         -0.13655       -0.31646        0.33021
C         -1.51320       -0.83950        0.38621
C         -2.01290       -1.69610        1.33593
C         -3.33710       -2.10166        1.04732
C         -3.80612       -1.57238       -0.13444
S         -2.65725       -0.56042       -0.90523
C         -5.15008       -2.05290       -0.36579
C         -5.51635       -2.87374        0.67668
C         -4.39142       -2.97987        1.68069
H         -4.04662       -4.01325        1.80688
H         -4.68932       -2.61325        2.67040
C         -6.83212       -3.38755        0.53158
C         -7.42422       -2.94036       -0.61620
H         -8.41600       -3.16611       -0.98323
S         -6.39462       -1.88913       -1.53876
C          0.89557       -1.29187        0.33441
C          2.21617       -0.94800        0.21783
C          3.24863       -2.01601        0.22165
O          2.99990       -3.19588        0.34185
N          4.56702       -1.57727        0.07383
C          5.59874       -2.59841        0.13223
O          6.10705       -2.95554        1.15332
O          5.85376       -3.03126       -1.08892
C          6.87181       -4.03594       -1.16889
C          5.00486       -0.26234       -0.11395
O          6.18342       -0.02278       -0.26358
C          3.94452        0.77741       -0.10861
C          4.29574        2.09844       -0.27113
H          5.34154        2.35301       -0.40414
C          3.30166        3.09041       -0.26159
C          1.97809        2.75188       -0.08432
C          0.96528        3.83404       -0.07094
O          1.21809        5.00219       -0.27405
N         -0.33410        3.42032        0.21180
C         -1.32391        4.46866        0.39398
O         -1.44780        5.08278        1.41177
O         -2.01857        4.60858       -0.72057
C         -3.05680        5.59348       -0.65927
C         -0.79050        2.11270        0.42790
O         -1.93891        1.94158        0.77152
C          0.21722        1.02849        0.24424
C          1.58333        1.39929        0.07846
C          2.58956        0.40735        0.06137
H         -1.44449       -1.99358        2.21041
H         -7.32383       -4.05183        1.23249
H          0.63123       -2.34128        0.41099
H          6.98513       -4.24840       -2.23043
H          6.55821       -4.92945       -0.62504
H          7.80457       -3.65633       -0.74689
H          3.55530        4.13697       -0.39115
H         -3.52863        5.57706       -1.64008
H         -2.62801        6.57565       -0.45022
H         -3.77465        5.33052        0.12030
