35
COMP27_430200.log	Energy: -1991331.5157671
C          2.73256        0.11687       -0.01662
C          1.35133       -0.15194        0.41509
C          0.95832       -1.07723        1.35298
C          1.83551       -1.88434        2.13289
N          2.48174       -2.57391        2.80571
C         -0.46397       -1.16920        1.48719
O         -1.10632       -1.98788        2.34245
C         -1.13841       -0.31893        0.64503
S         -0.01377        0.59086       -0.32254
C         -2.57769       -0.18527        0.56128
C         -3.24887        0.71127       -0.18771
C         -4.69876        0.74613       -0.30489
C         -5.56781       -0.31874       -0.34580
O         -5.25413       -1.62748       -0.29676
C         -6.93713        0.08043       -0.49256
C         -8.02825       -0.83673       -0.56253
N         -8.92277       -1.57123       -0.62171
C         -7.07659        1.44078       -0.57032
H         -8.00025        1.99143       -0.67837
S         -5.57215        2.24634       -0.47217
C          3.46212       -0.94046       -0.65326
N          2.99398       -2.16175       -0.90933
S          4.20733       -2.97194       -1.62300
N          5.35687       -1.82391       -1.64739
C          4.81587       -0.74454       -1.07990
C          5.45195        0.51047       -0.88847
H          6.47302        0.66168       -1.21626
C          4.74530        1.50691       -0.28497
Cl         5.51713        3.04195       -0.04701
C          3.38384        1.31367        0.16255
Cl         2.58218        2.61746        0.97203
H         -0.46830       -2.52420        2.83384
H         -3.12464       -0.86962        1.20771
H         -2.69566        1.45460       -0.76199
H         -4.29631       -1.72448       -0.40316
