28
COMP32_400000.log	Energy: -1181506.7523947
C         -2.10927        0.01558        0.02081
C         -0.70356       -0.37676        0.15857
C         -0.18351       -1.52816        0.71681
O         -0.86167       -2.55414        1.27305
C          1.23823       -1.55367        0.73582
H          1.79759       -2.37341        1.16994
C          1.79895       -0.43870        0.18014
S          0.58912        0.66394       -0.38331
C          3.21046       -0.12618        0.01349
S          4.38182       -1.39607       -0.17154
C          5.67599       -0.25630       -0.28926
H          6.69524       -0.59476       -0.41713
C          5.21521        1.02727       -0.20544
O          5.94484        2.16962       -0.26062
C          3.80286        1.10547       -0.03005
H          3.27479        2.04468        0.08427
C         -2.54771        1.32481        0.26191
F         -1.67731        2.26612        0.63032
C         -3.88180        1.68565        0.13032
F         -4.23073        2.94830        0.37565
C         -4.84562        0.76024       -0.23333
H         -5.88591        1.04503       -0.32791
C         -4.43762       -0.54016       -0.47107
F         -5.32354       -1.46983       -0.82868
C         -3.10157       -0.89372       -0.35809
F         -2.77007       -2.17554       -0.62183
H         -1.73008       -2.63127        0.85647
H          6.87641        1.94627       -0.37036
