23
COMP24_000200.log	Energy: -1684125.6466667
C          0.69496       -0.03590        0.00163
C         -0.77592        0.00489        0.03629
C         -1.63545       -0.61683       -0.82401
H         -1.30533       -1.22824       -1.65445
C         -2.99029       -0.35417       -0.48589
S         -4.53030       -0.81043       -1.13911
C         -5.34971        0.09557        0.09868
H         -6.43106        0.11644        0.11152
C         -4.50541        0.71627        0.96676
H         -4.83563        1.32495        1.79896
C         -3.14488        0.45501        0.62657
S         -1.61172        0.92360        1.27334
C          1.43719        1.18777       -0.12578
N          0.90817        2.40772       -0.21973
S          2.15502        3.44070       -0.34896
N          3.40549        2.40175       -0.29974
C          2.87128        1.18623       -0.17570
C          3.58884       -0.03657       -0.10780
H          4.67065       -0.04079       -0.15402
C          2.87576       -1.19018        0.01102
Cl         3.75175       -2.68790        0.09161
C          1.43019       -1.19764        0.07615
Cl         0.63169       -2.72312        0.28382
