27
COMP42_220001.log	Energy: -2369142.4622943
C          2.65431        0.45089        0.20398
C          1.22689        0.55774       -0.06973
C          0.49181        1.64144       -0.49331
Cl         1.14754        3.18995       -0.87394
C         -0.89899        1.36123       -0.62819
Cl        -2.04373        2.51499       -1.19203
C         -1.21743        0.07237       -0.29227
S          0.19084       -0.81021        0.17456
C         -2.52950       -0.56621       -0.30767
S         -2.90561       -1.83247       -1.43290
C         -4.49751       -1.99940       -0.81254
H         -5.18394       -2.72745       -1.22035
C         -4.73507       -1.12469        0.20269
Cl        -6.23481       -1.02520        1.04952
C         -3.60403       -0.30163        0.49971
Cl        -3.59292        0.86954        1.75983
C          3.48589       -0.63297        0.08770
C          3.41186       -2.04020       -0.39940
O          2.47995       -2.67808       -0.82702
N          4.71814       -2.52248       -0.25431
H          4.97089       -3.47036       -0.49533
C          5.63278       -1.60829        0.28617
O          6.79922       -1.82092        0.50372
C          4.81928       -0.38312        0.50136
C          5.03031        0.87841        0.95240
H          5.94565        1.33040        1.30895
S          3.57039        1.78928        0.86773
