34
COMP62_100000.log	Energy: -1174272.4901603
C          1.86056       -0.67784       -0.06106
C          0.43758       -0.88401        0.11289
C         -0.24528       -1.88699        0.75848
F          0.35562       -2.91326        1.36108
C         -1.64654       -1.73396        0.79894
H         -2.30994       -2.42408        1.30489
C         -2.04217       -0.57798        0.17343
S         -0.69522        0.30146       -0.46001
C         -3.39240       -0.06337        0.01008
S         -4.74508       -1.14759       -0.11688
C         -5.85832        0.15928       -0.26132
H         -6.91993       -0.00685       -0.36707
C         -5.19862        1.34856       -0.22780
F         -5.80760        2.53067       -0.31993
C         -3.79176        1.24395       -0.07237
H         -3.12783        2.09669        0.00272
C          2.55063        0.50614       -0.02947
C          2.40430        1.92586        0.25871
O          1.44405        2.63760        0.48949
N          3.74725        2.40376        0.19815
C          4.08393        3.79431        0.40139
C          4.62899        1.38641       -0.09418
H          5.69113        1.58381       -0.16087
C          3.93822        0.22723       -0.24709
C          4.09112       -1.20558       -0.45904
O          5.04532       -1.90885       -0.71706
N          2.75920       -1.70377       -0.32301
C          2.45930       -3.08654       -0.63301
H          3.15209        4.31765        0.62236
H          4.53402        4.22676       -0.49770
H          4.77163        3.91154        1.24462
H          3.27258       -3.45967       -1.25766
H          1.51491       -3.15129       -1.17878
H          2.39654       -3.69591        0.27057
