56
COMP71_300032.log	Energy: -2120191.4267541
C          1.16135       -1.49924       -1.07176
C         -0.17225       -1.01923       -0.70824
C         -0.68358        0.22592       -0.93632
C          0.07537        1.20251       -1.64855
N          0.70198        1.93943       -2.28714
C         -2.06099        0.35694       -0.50566
C         -2.90690        1.47229       -0.55429
C         -2.36969        2.83763       -0.85312
O         -1.36895        3.28536       -0.35512
O         -3.16126        3.50785       -1.69896
C         -2.72750        4.83730       -2.00958
C         -4.24084        1.29572       -0.18956
S         -5.49192        2.52129       -0.25670
C         -6.64820        1.41535        0.37745
H         -7.68051        1.71815        0.49356
C         -6.15141        0.17635        0.63838
C         -7.02954       -0.88800        1.01145
N         -7.79941       -1.72102        1.24993
C         -4.73178        0.07637        0.34023
C         -3.85609       -1.00745        0.49258
C         -4.25627       -2.20870        1.28766
O         -4.89397       -2.15039        2.30893
O         -3.77846       -3.34070        0.75934
C         -4.05641       -4.52887        1.50978
C         -2.55563       -0.86898        0.00821
S         -1.32204       -2.10833        0.00382
C          2.38880       -1.06743       -0.63079
C          2.61631       -0.04511        0.43437
O          1.69878        0.47197        1.04556
C          4.03634        0.25306        0.68007
C          4.47413        1.20513        1.55880
O          3.70813        1.96346        2.33171
C          4.30260        3.03744        3.04041
S          6.23280        1.31241        1.59239
C          6.35461        0.03256        0.38863
O          7.52480       -0.39956       -0.06678
C          8.71156        0.19207        0.43231
C          5.12584       -0.42618        0.00300
C          4.90484       -1.48400       -0.99356
O          5.79219       -2.09662       -1.56220
C          3.46822       -1.75820       -1.26880
C          3.04401       -2.69725       -2.16334
H          3.66992       -3.34156       -2.76550
S          1.33680       -2.75586       -2.25726
H         -3.46413        5.22508       -2.71143
H         -1.73485        4.80665       -2.46337
H         -2.69400        5.44732       -1.10414
H         -3.61370       -5.34274        0.93797
H         -5.13511       -4.66380        1.61015
H         -3.60531       -4.46240        2.50220
H          3.48484        3.53518        3.55971
H          4.78529        3.74099        2.35226
H          5.03116        2.66878        3.77343
H          9.53103       -0.31316       -0.07726
H          8.80252        0.03738        1.51441
H          8.74326        1.26418        0.20358
