30
COMP42_110000.log	Energy: -1489252.3965810
C         -1.95406        0.99543        0.00096
C         -0.50680        1.04131       -0.00026
C          0.28135        2.16183       -0.00206
F         -0.18687        3.40868       -0.00343
C          1.66611        1.89241       -0.00224
F          2.57459        2.86822       -0.00319
C          1.96302        0.55801       -0.00018
S          0.49876       -0.38592        0.00040
C          3.27544       -0.05214        0.00032
S          4.75154        0.87761        0.00076
C          5.73186       -0.54093        0.00153
H          6.80973       -0.47625        0.00142
C          4.97011       -1.66320        0.00103
F          5.43257       -2.90904        0.00132
C          3.57637       -1.38599        0.00049
F          2.66456       -2.35608        0.00059
C         -2.81674       -0.07025       -0.00018
C         -2.73622       -1.54979       -0.00119
O         -1.76833       -2.27819       -0.00344
N         -4.06698       -1.98852       -0.00226
C         -4.44653       -3.38474       -0.00156
C         -5.00506       -0.94791        0.00096
O         -6.20340       -1.09800        0.00143
C         -4.18762        0.29203        0.00059
C         -4.40618        1.62839        0.00175
H         -5.34397        2.16662        0.00321
S         -2.90099        2.47653        0.00346
H         -3.52945       -3.97463       -0.02013
H         -5.05411       -3.61107       -0.88112
H         -5.02220       -3.62001        0.89721
