52
COMP71_100030.log	Energy: -2034635.3179934
C          1.50792       -1.44530        0.86336
C          0.13540       -1.02128        0.61764
C         -0.37878        0.21102        0.83320
F          0.35607        1.21952        1.28424
C         -1.76497        0.35738        0.47562
C         -2.60886        1.47376        0.56177
C         -2.26163        2.73763        1.27724
O         -2.59470        3.83733        0.89602
O         -1.62529        2.50348        2.42314
C         -1.22696        3.66357        3.15504
C         -3.87027        1.38102       -0.02511
S         -5.02134        2.69130       -0.17665
C         -6.15351        1.63360       -0.96060
H         -7.09631        2.00940       -1.33224
C         -5.68897        0.37700       -1.10349
F         -6.36024       -0.56417       -1.76734
C         -4.37200        0.16170       -0.55091
C         -3.57647       -0.99425       -0.50125
C         -4.05069       -2.36749       -0.83776
O         -3.33534       -3.22176       -1.31408
O         -5.31386       -2.57258       -0.47270
C         -5.84576       -3.85996       -0.78809
C         -2.25910       -0.85878       -0.06152
S         -1.04645       -2.11777       -0.07266
C          2.69281       -0.91024        0.40932
C          2.82509        0.21319       -0.55922
O          1.85218        0.76532       -1.04464
C          4.22434        0.58405       -0.89512
C          4.58229        1.60632       -1.73831
C          3.73664        2.56092       -2.52358
S          6.30974        1.70881       -1.84796
C          6.56915        0.38478       -0.76848
C          7.95257       -0.06567       -0.41796
C          5.36498       -0.11152       -0.34135
C          5.23346       -1.24828        0.58627
O          6.18503       -1.85459        1.05489
C          3.83511       -1.61299        0.91617
C          3.50487       -2.66281        1.72177
H          4.19111       -3.34208        2.20863
S          1.80876       -2.81236        1.89443
H         -0.70383        3.28637        4.03238
H         -2.10218        4.24814        3.44793
H         -0.56416        4.28503        2.54876
H         -6.88323       -3.83284       -0.45826
H         -5.29205       -4.64055       -0.26126
H         -5.78819       -4.04152       -1.86366
H          2.68975        2.42957       -2.25523
H          3.84562        2.37716       -3.59833
H          4.03360        3.59722       -2.33133
H          8.70880        0.52405       -0.94277
H          8.08465       -1.12128       -0.66966
H          8.11842        0.02172        0.65952
