27
COMP12_030000.log	Energy: -1249452.8764874
C         -2.50868        0.60182       -0.04215
C         -1.15606        0.09828       -0.10129
C         -0.75428       -1.14939       -0.49905
H         -1.43495       -1.92262       -0.83458
C          0.65893       -1.30055       -0.46302
C          1.31089       -2.50474       -0.87247
N          1.82232       -3.48920       -1.20874
C          1.32440       -0.16353       -0.03472
S          0.19532        1.08810        0.34296
C          2.75508        0.03884        0.14657
S          3.76598       -1.20993        0.78532
C          5.16371       -0.21646        0.69983
H          6.12302       -0.60749        1.00929
C          4.88610        1.02275        0.21118
H          5.62090        1.80427        0.06711
C          3.50323        1.17666       -0.10625
C          2.97141        2.38392       -0.65504
N          2.55888        3.37498       -1.09363
C         -3.00514        1.84508       -0.10547
C         -4.47506        1.91807        0.00875
C         -5.08626        0.74261        0.15992
H         -6.13841        0.51339        0.25467
S         -3.87571       -0.56150        0.20120
O         -3.99945       -1.43160       -0.96218
O         -3.79308       -1.14531        1.53222
H         -2.40076        2.73400       -0.25027
H         -4.99721        2.86638       -0.04244
