30
COMP51_000110.log	Energy: -1578105.8057918
C         -0.82747        0.59931       -0.00337
C          0.61616        0.46998       -0.00327
C          1.33225       -0.68684       -0.00963
H          0.87892       -1.67249       -0.01757
C          2.75338       -0.48226       -0.00539
C          3.76833       -1.44162       -0.00957
H          3.52790       -2.50031       -0.01736
C          5.08168       -0.99673       -0.00363
S          6.52430       -1.98869       -0.00664
C          7.53558       -0.56902        0.00537
H          8.61095       -0.68851        0.00743
C          6.84092        0.58923        0.01138
H          7.30465        1.56868        0.01938
C          5.41290        0.38424        0.00638
C          4.39674        1.34202        0.01029
H          4.63605        2.40100        0.01804
C          3.08360        0.89719        0.00444
S          1.64850        1.89648        0.00763
C         -1.60833        1.72785       -0.00694
F         -1.11149        2.95719       -0.01068
N         -2.94673        1.58355       -0.00625
C         -3.24649        0.31239       -0.00205
S         -1.89498       -0.77314        0.00173
C         -4.60802       -0.18938       -0.00001
S         -5.96886        0.88594       -0.00317
C         -7.00586       -0.48791        0.00212
H         -8.08216       -0.40892        0.00224
C         -6.24199       -1.61579        0.00577
F         -6.73277       -2.84471        0.01021
N         -4.89922       -1.46317        0.00451
