37
COMP27_430300.log	Energy: -1530269.0961075
C          2.84981        0.24329       -0.01957
C          1.48365       -0.15441        0.33777
C          1.12221       -1.21390        1.14449
C          2.01664       -2.07195        1.84699
N          2.67349       -2.80517        2.46070
C         -0.29301       -1.36283        1.26646
O         -0.91215       -2.30427        2.00292
C         -0.99692       -0.42331        0.54837
S          0.09109        0.64051       -0.28541
C         -2.44008       -0.31985        0.48790
C         -3.13603        0.68953       -0.07176
C         -4.58484        0.71139       -0.18435
C         -5.43230       -0.34997       -0.40449
O         -5.09199       -1.64085       -0.57903
C         -6.80980        0.03913       -0.47881
C         -7.88080       -0.87756       -0.70079
N         -8.75791       -1.61302       -0.88192
C         -6.97674        1.39007       -0.32442
H         -7.91158        1.93241       -0.33465
S         -5.48940        2.19928       -0.09376
C          3.74781       -0.73546       -0.56124
N          3.44309       -2.00788       -0.81895
S          4.79155       -2.69198       -1.40163
N          5.80369       -1.42554       -1.37461
C          5.10334       -0.39807       -0.88891
C          5.58184        0.92565       -0.70870
H          6.60421        1.17970       -0.96118
C          4.71181        1.85762       -0.21270
C          5.16949        3.20630       -0.02597
N          5.56034        4.28777        0.11164
C          3.34817        1.52061        0.14149
C          2.53354        2.55472        0.71395
N          1.89230        3.40030        1.17861
H         -0.26140       -2.87711        2.43271
H         -2.96373       -1.13024        0.99189
H         -2.60374        1.54908       -0.47953
H         -4.13415       -1.69898       -0.70990
