42
COMP62_040003.log	Energy: -1380711.2775980
C          0.87721        0.74198        0.19304
C         -0.37028        0.03524        0.27517
C         -0.44350       -1.33220        0.47327
H          0.43123       -1.94825        0.65754
C         -1.75049       -1.82780        0.35992
O         -2.11277       -3.12745        0.51637
C         -2.69523       -0.85980        0.05978
S         -1.94527        0.70104       -0.04396
C         -4.11534       -1.05393       -0.11693
S         -4.88712       -2.61382        0.04640
C         -6.43201       -1.94702       -0.29316
H         -7.30471       -2.58537       -0.30791
C         -6.38540       -0.60529       -0.52539
H         -7.25130        0.00381       -0.76176
C         -5.06046       -0.09779       -0.42422
O         -4.70541        1.19883       -0.60840
C          2.13941        0.19382        0.12324
C          2.83012       -1.08492        0.11794
O          2.45221       -2.22511        0.29172
N          4.20850       -0.69867       -0.13109
C          5.35152       -1.50522       -0.22584
O          6.44931       -1.04031       -0.42531
O          5.06897       -2.78977       -0.07574
C          6.19514       -3.66511       -0.16522
C          4.32388        0.68769       -0.27304
H          5.28826        1.12360       -0.48506
C          3.10056        1.22774       -0.11390
C          2.41702        2.51201       -0.16855
O          2.82437        3.63839       -0.27786
N          1.02140        2.13885        0.01465
C          0.06764        3.10084        0.42006
O         -0.68734        2.94854        1.34743
O          0.13839        4.17049       -0.35562
C         -0.68392        5.26626        0.05076
H         -1.32457       -3.66187        0.66924
H         -5.49337        1.73220       -0.76174
H          5.78770       -4.66517       -0.02621
H          6.92323       -3.43212        0.61488
H          6.67256       -3.57389       -1.14332
H         -0.43722        6.07707       -0.63251
H         -0.46041        5.54797        1.08193
H         -1.73952        4.99735       -0.03129
