42
COMP26_000020.log	Energy: -920942.5774122
C         -2.42769        1.16793        0.15459
C         -0.96376        1.15628       -0.06257
C         -0.19738        0.02988        0.27827
C          1.16563        0.04889        0.06237
C          2.19454       -1.06062        0.32013
O          2.13686       -1.58725        1.62555
C          2.28146       -0.64940        2.66937
O          2.09577       -2.13879       -0.55492
C          0.88270       -2.87016       -0.51851
C          3.50081       -0.34823       -0.01305
C          4.78465       -0.85040        0.08295
C          5.84770       -0.02859       -0.29739
H          6.86671       -0.39750       -0.22805
C          5.61125        1.26283       -0.76803
C          4.31228        1.76312       -0.86463
C          3.25712        0.94568       -0.47967
C          1.80257        1.19068       -0.44026
C          1.05851        2.31206       -0.77720
C         -0.32312        2.28007       -0.59659
C         -3.24470        0.02383       -0.15071
N         -2.82174       -1.14097       -0.64730
S         -4.13910       -2.07978       -0.81885
N         -5.29256       -1.06661       -0.28359
C         -4.67225        0.06526        0.05559
C         -5.29765        1.23767        0.56792
H         -6.37057        1.25235        0.72099
C         -4.49932        2.30586        0.84776
H         -4.93613        3.21662        1.24571
C         -3.08442        2.26722        0.64508
H         -2.50503        3.14596        0.91343
H         -0.67572       -0.83818        0.71705
H          2.23188       -1.21675        3.60060
H          1.47890        0.09940        2.66124
H          3.24833       -0.13201        2.61436
H          1.06860       -3.78323       -1.08709
H          0.06187       -2.31486       -0.98909
H          0.60789       -3.13407        0.50796
H          4.95280       -1.85928        0.44676
H          6.44901        1.88837       -1.06211
H          4.13719        2.77041       -1.23207
H          1.53433        3.20112       -1.18089
H         -0.91902        3.14029       -0.88851
