34
COMP57_110400.log	Energy: -1797697.5462112
C         -1.94988       -0.21338        0.32743
C         -0.55124        0.16415        0.32188
C          0.00452        1.37861        0.60674
F         -0.69233        2.45353        0.96224
C          1.41771        1.41019        0.49878
F          2.10305        2.52347        0.76056
C          1.98228        0.21766        0.13776
S          0.71740       -0.95411       -0.12023
C          3.36968       -0.16021       -0.04779
C          4.41485        0.68185        0.06775
C          5.80366        0.30555       -0.11551
C          6.36891       -0.90626       -0.40765
F          5.68560       -2.03832       -0.58877
C          7.78588       -0.87464       -0.50727
F          8.48868       -1.96877       -0.78526
C          8.31082        0.35869       -0.29158
H          9.35184        0.64402       -0.31116
S          7.06228        1.50053        0.03739
C         -2.51181       -1.38927        0.78274
O         -1.87554       -2.43096        1.34578
N         -3.85596       -1.50639        0.64550
C         -4.35016       -0.43017        0.09727
S         -3.21154        0.81073       -0.29669
C         -5.76835       -0.24922       -0.16461
S         -6.92121       -1.48140        0.22795
C         -8.15998       -0.45120       -0.38687
H         -9.19793       -0.75204       -0.39004
C         -7.60924        0.72174       -0.83116
O         -8.24266        1.77803       -1.37838
N         -6.25932        0.83169       -0.70451
H          3.54717       -1.20134       -0.29737
H          4.23630        1.72421        0.31214
H         -0.95831       -2.18859        1.53509
H         -9.18850        1.59413       -1.41580
