56
COMP83_000022.log	Energy: -981569.1657538
C          2.53360       -0.07835       -0.00999
C          4.01418       -0.17361        0.05878
C          4.67770       -1.11209       -0.74473
C          6.06494       -1.22944       -0.71401
O          6.78052       -2.10273       -1.46924
C          6.07379       -2.95846       -2.33779
C          6.80990       -0.40236        0.13160
H          7.89012       -0.50114        0.14184
C          6.16184        0.52130        0.93305
C          4.77364        0.64606        0.90141
O          4.18604        1.59715        1.70358
C          3.61662        1.07350        2.89138
C          1.75241       -1.23999       -0.00841
C          0.36231       -1.19789       -0.09338
C         -0.28546        0.03527       -0.16960
C         -1.68456        0.47680       -0.33671
C         -1.60209        1.98474       -0.54493
O         -2.45586        2.80439       -0.80902
N         -0.28586        2.30745       -0.29261
O          0.22798        3.52764       -0.63295
C          0.11155        4.43371        0.46492
C          0.52778        1.18520       -0.18034
C          1.90241        1.16947       -0.10303
C         -2.86741       -0.19208       -0.24758
C         -2.97186       -1.61549        0.28118
O         -2.12088       -2.44145        0.53609
N         -4.31868       -1.81462        0.50939
O         -4.82472       -3.07039        0.71267
C         -4.80776       -3.38709        2.10466
C         -5.10334       -0.80854       -0.04650
C         -6.47812       -0.79647       -0.16870
C         -7.05031        0.31892       -0.77999
H         -8.12864        0.36773       -0.89817
C         -6.25325        1.35952       -1.24906
C         -4.86501        1.32299       -1.11746
C         -4.26254        0.22877       -0.49451
H          4.08155       -1.72344       -1.41246
H          6.82646       -3.57096       -2.83555
H          5.51120       -2.39332       -3.09212
H          5.38368       -3.61049       -1.78653
H          6.72337        1.17089        1.59691
H          4.38266        0.59194        3.51329
H          2.82419        0.34751        2.67071
H          3.18916        1.92083        3.43113
H          2.24180       -2.20529        0.07767
H         -0.21000       -2.11258       -0.09018
H          0.58451        5.35411        0.11977
H          0.63835        4.04596        1.34336
H         -0.94116        4.61615        0.69742
H          2.46855        2.09149       -0.12819
H         -5.26534       -4.37513        2.17368
H         -5.39529       -2.65960        2.67495
H         -3.77992       -3.42336        2.47540
H         -7.07124       -1.63323        0.18174
H         -6.71358        2.21532       -1.73196
H         -4.25906        2.13359       -1.49094
