42
COMP72_340000.log	Energy: -1786505.9626353
C          0.67980        1.20389        0.58691
C         -0.57837        0.46757        0.61096
C         -0.84852       -0.72681        1.23893
C          0.07062       -1.50439        1.99787
N          0.73871       -2.19573        2.64748
C         -2.20574       -1.13915        1.08659
O         -2.72769       -2.27127        1.60459
C         -2.96703       -0.25708        0.35816
S         -1.99039        1.09229       -0.15496
C         -4.36954       -0.37990        0.01989
S         -5.33946       -1.75235        0.49603
C         -6.73342       -1.12412       -0.26141
H         -7.67080       -1.66141       -0.23650
C         -6.49022        0.08433       -0.86016
C         -7.43356        0.87642       -1.57599
N         -8.13253        1.58395       -2.17386
C         -5.13222        0.50907       -0.69752
O         -4.61915        1.65874       -1.18583
C          1.94725        0.78492        0.24558
C          2.31600       -0.54668       -0.31390
O          1.48852       -1.40908       -0.56185
C          3.75867       -0.73371       -0.56105
C          4.30664       -1.91379       -0.99690
C          3.63137       -3.21371       -1.30197
S          6.01998       -1.74109       -1.15931
C          6.01800       -0.08898       -0.64897
C          7.28563        0.70255       -0.57369
C          4.73698        0.30599       -0.36053
C          4.36841        1.65167        0.10965
O          5.16733        2.56301        0.25889
C          2.92198        1.82543        0.40151
C          2.38540        3.00099        0.83882
H          2.91783        3.92431        1.02203
S          0.69837        2.86895        1.08841
H         -2.03645       -2.78622        2.04490
H         -5.29832        2.15158       -1.66770
H          3.06865       -3.55967       -0.43031
H          4.35550       -3.98139       -1.58699
H          2.90866       -3.08697       -2.11272
H          8.15605        0.08908       -0.82089
H          7.41462        1.11855        0.42914
H          7.24396        1.55165       -1.26211
