62
COMP91_300030.log	Energy: -1785645.5492430
C          1.51370       -0.22385        0.06266
C          0.03324       -0.14091        0.06994
C         -0.72074        0.69102       -0.70548
C         -0.04777        1.57823       -1.60001
N          0.59630        2.22733       -2.31379
C         -2.15017        0.46808       -0.55053
C         -3.24859        1.08749       -1.16866
C         -3.16302        2.31685       -2.01057
O         -3.93096        2.56392       -2.91360
O         -2.19756        3.13055       -1.59973
C         -1.96761        4.29473       -2.40001
C         -4.52019        0.55947       -0.93658
S         -6.01019        1.14896       -1.64302
C         -6.92216        0.02711       -0.70596
H         -8.00245        0.02066       -0.77153
C         -6.17180       -0.79263        0.07857
C         -6.79092       -1.68631        1.00571
N         -7.34145       -2.34801        1.78211
C         -4.74993       -0.52474       -0.05610
C         -3.65789       -1.13762        0.57031
C         -3.82940       -2.41629        1.32961
O         -4.49613       -3.33862        0.93398
O         -3.11967       -2.42328        2.46242
C         -3.20775       -3.63158        3.22814
C         -2.38779       -0.61708        0.33305
S         -0.90151       -1.24860        1.00873
C          2.08817       -1.15020       -0.83876
C          3.45051       -1.27309       -0.95470
C          4.01692       -2.25973       -1.91691
O          3.30440       -2.97282       -2.59366
N          5.41013       -2.32115       -1.99623
C          6.01645       -3.26964       -2.92964
C          6.29596       -1.54459       -1.24678
O          7.49608       -1.67322       -1.38273
C          5.70422       -0.57038       -0.29098
C          6.52602        0.22689        0.47177
H          7.60059        0.12871        0.36230
C          5.97085        1.15459        1.37325
C          4.60478        1.27195        1.50331
C          4.05222        2.26865        2.45716
O          4.76755        2.98165        3.13148
N          2.65967        2.34267        2.53657
C          2.06605        3.30488        3.46430
C          1.76260        1.54042        1.83295
O          0.56911        1.64650        2.03443
C          2.33211        0.57000        0.85247
C          3.73911        0.46051        0.73283
C          4.30065       -0.46469       -0.17279
H         -1.10035        4.77945       -1.95635
H         -2.84331        4.94656       -2.37152
H         -1.75361        4.00648       -3.43079
H         -2.62249       -3.44720        4.12744
H         -2.79658       -4.47032        2.66220
H         -4.25063       -3.83806        3.47654
H          1.44835       -1.77041       -1.45797
H          5.21277       -3.79618       -3.43873
H          6.64712       -3.97209       -2.38155
H          6.63623       -2.73089       -3.64871
H          6.60746        1.79222        1.97683
H          2.86671        3.92916        3.85331
H          1.56700        2.77880        4.28127
H          1.32791        3.90886        2.93510
