44
COMP61_000020.log	Energy: -1241279.6547726
C          2.32275        0.79262       -0.10431
C          0.87867        0.70995       -0.09951
C          0.20838       -0.45915       -0.31892
H          0.71668       -1.38619       -0.55898
C         -1.20789       -0.33602       -0.17157
C         -2.18758       -1.32928       -0.31263
O         -1.88711       -2.61301       -0.65215
C         -1.27584       -3.38698        0.38035
C         -3.51200       -0.95535       -0.12886
S         -4.89965       -2.01014       -0.24380
C         -5.95994       -0.68438        0.15154
H         -7.02518       -0.86387        0.21630
C         -5.32047        0.48963        0.35355
H         -5.81604        1.41402        0.62312
C         -3.89372        0.37137        0.19295
C         -2.91490        1.36064        0.33144
O         -3.23884        2.65006        0.65678
C         -3.61679        3.44214       -0.46327
C         -1.58998        0.98891        0.15453
S         -0.20953        2.04510        0.29279
C          3.19983       -0.27078       -0.07448
C          3.26321       -1.71618        0.03319
O          2.41514       -2.59973        0.03131
N          4.65705       -1.97418        0.13450
C          5.19440       -3.31072        0.25344
C          5.38851       -0.80640        0.09444
H          6.46713       -0.83135        0.17661
C          4.53476        0.24086       -0.04088
C          4.47201        1.69347       -0.08198
O          5.32229        2.55818       -0.09866
N          3.06787        1.96404       -0.11534
C          2.59955        3.32806       -0.24225
H         -1.19513       -4.39980       -0.01554
H         -1.90323       -3.39015        1.27945
H         -0.27517       -3.01711        0.62603
H         -3.82417        4.44111       -0.07690
H         -4.51557        3.03958       -0.94619
H         -2.80619        3.49350       -1.20020
H          4.34966       -4.00041        0.21580
H          5.71931       -3.43890        1.20526
H          5.87778       -3.53327       -0.57170
H          3.48852        3.94069       -0.40366
H          2.10025        3.67085        0.66892
H          1.92430        3.43453       -1.09513
