50
COMP71_400020.log	Energy: -1862291.8257143
C          1.13707       -1.34187       -0.34344
C         -0.20480       -0.83520       -0.12035
C         -0.79660        0.31021       -0.60019
O         -0.19036        1.28468       -1.28026
C         -2.22381        0.36117       -0.35325
C         -3.15511        1.35266       -0.69359
O         -2.84355        2.49671       -1.36141
C         -2.21629        3.49756       -0.56632
C         -4.48506        1.12767       -0.35515
S         -5.78607        2.24309       -0.69244
C         -6.92345        1.16341        0.07581
H         -7.96966        1.43598        0.13043
C         -6.35720        0.02799        0.55094
O         -6.98593       -0.99340        1.18679
C         -4.92984       -0.03506        0.31603
C         -3.99714       -1.02030        0.66406
O         -4.31953       -2.15590        1.34695
C         -4.86893       -3.19099        0.53882
C         -2.67144       -0.79997        0.31474
S         -1.37141       -1.90191        0.67844
C          2.40697       -0.77529       -0.28285
C          2.73856        0.59710        0.11621
O          1.87534        1.46935        0.26662
C          4.17241        0.88735        0.33082
C          4.67818        2.07842        0.79575
C          3.98747        3.32880        1.24682
S          6.40831        2.00431        0.85096
C          6.47261        0.38683        0.24445
C          7.78025       -0.30900        0.03335
C          5.20355       -0.07489        0.01790
C          4.89569       -1.42417       -0.48347
O          5.74979       -2.24490       -0.78267
C          3.44903       -1.73118       -0.56149
C          2.97939       -2.97711       -0.83311
H          3.57294       -3.85335       -1.05541
S          1.27052       -3.03522       -0.75725
H          0.69028        1.42050       -0.85411
H         -2.07505        4.35732       -1.22248
H         -1.24467        3.15347       -0.20139
H         -2.85971        3.77893        0.27636
H         -7.92333       -0.77965        1.26646
H         -5.02462       -4.04200        1.20330
H         -4.17117       -3.47098       -0.25989
H         -5.82710       -2.88362        0.10874
H          2.91804        3.24654        1.06378
H          4.37618        4.20239        0.71308
H          4.15102        3.49385        2.31757
H          8.61895        0.30603        0.36996
H          7.91702       -0.54597       -1.02567
H          7.79400       -1.26074        0.57086
