33
COMP42_120003.log	Energy: -2059810.5561733
C         -1.45389        1.65183        0.04793
C         -0.03391        1.37854       -0.05501
C          0.97647        2.30570       -0.06522
F          0.76584        3.61673        0.01627
C          2.28131        1.76513       -0.15977
Cl         3.68950        2.75519       -0.16367
C          2.26561        0.39738       -0.21996
S          0.64686       -0.21971       -0.17319
C          3.40229       -0.51285       -0.32868
S          4.35139       -0.59440       -1.78035
C          5.38200       -1.80590       -1.12434
H          6.20695       -2.21703       -1.68710
C          5.00550       -2.12860        0.13940
F          5.61555       -3.03029        0.89862
C          3.87369       -1.39674        0.60419
Cl         3.22565       -1.61231        2.18472
C         -2.53455        0.80540        0.03378
C         -2.76867       -0.64821       -0.07775
O         -1.97212       -1.54903       -0.15739
N         -4.18525       -0.79291       -0.02094
C         -4.87608       -2.03247       -0.02127
O         -5.83746       -2.25470        0.66169
O         -4.31452       -2.86791       -0.88594
C         -4.87721       -4.18234       -0.90101
C         -4.86956        0.45369        0.13720
O         -6.05826        0.60534        0.18629
C         -3.78294        1.45714        0.16748
C         -3.69481        2.80513        0.28105
H         -4.48546        3.53424        0.39240
S         -2.04286        3.29537        0.22883
H         -4.29606       -4.73487       -1.63736
H         -5.93018       -4.14088       -1.18772
H         -4.78742       -4.64470        0.08453
