58
COMP85_000012.log	Energy: -1016808.0392893
C          1.49371        0.12656        0.14481
C          2.97242        0.09709        0.25611
C          3.72444       -0.66481       -0.63786
C          5.10936       -0.66640       -0.50175
N          6.06260       -1.32189       -1.25658
H          5.86977       -1.92782       -2.03591
C          7.32106       -1.03102       -0.76340
C          8.56952       -1.46817       -1.20388
C          9.68723       -1.01187       -0.51938
H         10.67301       -1.33539       -0.84025
C          9.57051       -0.14237        0.57558
C          8.32435        0.28680        1.00893
C          7.18372       -0.15826        0.33815
C          5.76393        0.07516        0.50556
C          4.99977        0.83242        1.39381
C          3.62038        0.83992        1.26463
C          0.77072       -1.03133       -0.16234
C         -0.61844       -1.03287       -0.27106
C         -1.33049        0.14884       -0.06234
C         -2.75181        0.55156       -0.12387
C         -2.74019        2.06865        0.02980
O         -3.62391        2.89258       -0.08557
N         -1.43984        2.38404        0.34687
O         -0.99687        3.66637        0.48074
C         -0.83736        4.28476       -0.80131
C         -0.57552        1.30276        0.22459
C          0.79665        1.32755        0.34133
C         -3.90293       -0.17455       -0.18646
C         -3.92472       -1.69342       -0.08051
O         -3.03767       -2.51720       -0.15325
N         -5.24064       -2.01628        0.18296
O         -5.69259       -3.30225        0.04533
C         -5.52159       -4.01610        1.26996
C         -6.09689       -0.93942       -0.02921
C         -7.47657       -0.96837       -0.04955
C         -8.13235        0.23762       -0.29486
H         -9.21776        0.25808       -0.32268
C         -7.40970        1.40664       -0.51488
C         -6.01469        1.41058       -0.49157
C         -5.32776        0.22259       -0.23553
H          3.23868       -1.21746       -1.43675
H          8.66546       -2.14157       -2.05040
H         10.46618        0.19631        1.08663
H          8.23624        0.96061        1.85647
H          5.47823        1.40375        2.18404
H          3.01958        1.40710        1.96892
H          1.30262       -1.96813       -0.29562
H         -1.14254       -1.94579       -0.50639
H         -0.40269        5.26246       -0.59036
H         -1.80783        4.40154       -1.29060
H         -0.15584        3.69895       -1.42788
H          1.31182        2.25817        0.55195
H         -5.96758       -4.99518        1.08857
H         -6.04263       -3.51024        2.08981
H         -4.45882       -4.12519        1.50165
H         -8.01055       -1.89925        0.10163
H         -7.93408        2.33557       -0.71400
H         -5.46817        2.32295       -0.67058
