45
COMP45_000033.log	Energy: -1132907.0318900
C         -1.09607       -2.05046       -0.08395
C          0.34710       -1.79855        0.02070
C          0.82006       -0.49127       -0.12809
C          2.18854       -0.27032       -0.04377
N          2.92794        0.92931       -0.14943
C          2.44913        2.22747       -0.29812
O          3.15334        3.20793       -0.36189
O          1.11933        2.24110       -0.35456
C          0.50540        3.52618       -0.45399
C          4.29814        0.61653       -0.01222
C          5.41431        1.45042       -0.04645
C          6.65957        0.85610        0.12083
H          7.54505        1.48420        0.09811
C          6.80110       -0.52297        0.31673
C          5.68400       -1.34416        0.34956
C          4.42518       -0.76880        0.18397
C          3.09029       -1.32850        0.16596
C          2.61017       -2.62801        0.31796
C          1.24764       -2.85722        0.25103
C         -2.18415       -1.20961       -0.01630
C         -2.45566        0.22804        0.22279
O         -1.70487        1.14099        0.46117
N         -3.87587        0.34960        0.15901
C         -4.59541        1.55226        0.36995
O         -5.64131        1.60583        0.95593
O         -3.95828        2.57726       -0.18866
C         -4.56766        3.85076        0.03589
C         -4.53678       -0.89626       -0.07371
O         -5.72006       -1.05802       -0.19056
C         -3.43065       -1.86887       -0.18158
C         -3.33858       -3.20485       -0.38655
H         -4.12780       -3.92875       -0.53370
S         -1.68028       -3.67432       -0.38515
H          0.13239        0.32330       -0.28594
H         -0.56280        3.32931       -0.37726
H          0.75417        3.99199       -1.41043
H          0.84102        4.17137        0.36059
H          5.30868        2.51517       -0.19669
H          7.79067       -0.95043        0.44371
H          5.78494       -2.41474        0.50134
H          3.29665       -3.45022        0.49451
H          0.87697       -3.86795        0.39393
H         -3.89518        4.57596       -0.42003
H         -4.67150        4.04078        1.10643
H         -5.55260        3.88869       -0.43455
