46
COMP72_320003.log	Energy: -2505462.5946474
C          0.01356       -1.75806        0.21958
C          1.25849       -1.00473        0.36357
C          1.57928       -0.14244        1.38614
C          0.70231        0.12122        2.47955
N         -0.02574        0.30826        3.36109
C          2.87032        0.44429        1.21524
Cl         3.54305        1.55126        2.34945
C          3.51353        0.02284        0.08398
S          2.52280       -1.09634       -0.79802
C          4.83115        0.41580       -0.40820
S          5.11360        2.00278       -1.05784
C          6.75239        1.65158       -1.38403
H          7.40683        2.39298       -1.82094
C          7.08854        0.37318       -1.02356
C          8.39481       -0.17852       -1.18893
N          9.45829       -0.61615       -1.33007
C          5.97508       -0.33227       -0.46137
Cl         6.09220       -1.95553        0.10271
C         -1.25803       -1.26804        0.04805
C         -1.60666        0.16207       -0.17244
O         -0.77053        1.00805       -0.40895
C         -3.07280        0.44182       -0.17627
C         -3.64976        1.68925       -0.20390
C         -3.03080        3.02731        0.02005
O         -2.09648        3.24787        0.74295
O         -3.71487        3.96665       -0.65251
C         -3.27094        5.30888       -0.43823
S         -5.35836        1.58643       -0.40663
C         -5.32078       -0.12899       -0.44730
C         -6.57429       -0.89566       -0.73179
O         -6.69618       -1.68056       -1.63438
O         -7.54724       -0.53312        0.11046
C         -8.80303       -1.18725       -0.09943
C         -4.04371       -0.60857       -0.29156
C         -3.69329       -2.04513       -0.12458
O         -4.52208       -2.93025       -0.05478
C         -2.24238       -2.30507        0.02493
C         -1.70402       -3.55189        0.16857
H         -2.24068       -4.49093        0.17707
S         -0.00400       -3.48735        0.34819
H         -3.92449        5.93249       -1.04641
H         -2.23075        5.41851       -0.75233
H         -3.35689        5.57275        0.61847
H         -9.47512       -0.77582        0.65204
H         -8.68978       -2.26540        0.03201
H         -9.17584       -0.98386       -1.10594
