42
COMP63_000030.log	Energy: -788166.7972861
C          0.82032       -0.06661        0.43213
C         -0.46590       -0.69792        0.08668
C         -1.61677        0.06736        0.28191
C         -2.87735       -0.46565        0.02336
C         -4.12719        0.33169        0.20985
O         -5.23598       -0.08542       -0.03479
O         -3.88114        1.56069        0.67813
C         -5.02737        2.39402        0.84781
C         -3.00142       -1.77993       -0.42280
H         -3.99081       -2.18329       -0.60865
C         -1.86329       -2.54264       -0.63684
C         -0.59551       -2.00856       -0.40948
C          0.56292       -2.88153       -0.77828
O          0.52555       -4.09054       -0.77448
O          1.63121       -2.16952       -1.14874
C          2.80284       -2.92165       -1.46284
C          1.29453        1.14355        0.02293
C          0.99339        2.27174       -0.84787
O          0.03217        2.56330       -1.53246
N          2.15790        3.08872       -0.72081
C          2.29733        4.35182       -1.40852
C          3.07536        2.52484        0.14088
H          4.01729        3.02156        0.33583
C          2.58354        1.35255        0.61575
C          2.88521        0.20669        1.46641
O          3.82576       -0.07035        2.18240
N          1.73827       -0.62523        1.31048
C          1.58691       -1.84289        2.07436
H         -1.52382        1.08604        0.63872
H         -4.64548        3.33955        1.23077
H         -5.72661        1.94489        1.55715
H         -5.53366        2.54322       -0.10870
H         -1.93691       -3.56098       -1.00275
H          3.55052       -2.18565       -1.75386
H          2.60243       -3.61795       -2.27994
H          3.14051       -3.48276       -0.58733
H          1.36741        4.51972       -1.95480
H          3.13003        4.32638       -2.11859
H          2.44984        5.16989       -0.69769
H          2.28169       -1.78341        2.91396
H          1.83424       -2.73316        1.48686
H          0.56421       -1.93527        2.44819
