46
COMP92_010000.log	Energy: -1460703.4937259
C          0.39057       -0.24159        0.36592
C         -1.07469       -0.35240        0.53691
C         -1.73541       -0.84460        1.62337
H         -1.26051       -1.14411        2.54900
C         -3.13794       -0.87399        1.41145
F         -3.98154       -1.27936        2.35917
C         -3.54871       -0.44772        0.18009
S         -2.16106        0.01113       -0.76265
C         -4.90421       -0.39193       -0.33568
S         -5.53400        0.97456       -1.21026
C         -7.07184        0.22251       -1.40229
H         -7.85981        0.73242       -1.93867
C         -7.12425       -1.00576       -0.81692
H         -7.98829       -1.65744       -0.80950
C         -5.88128       -1.34168       -0.21776
F         -5.68731       -2.50919        0.39446
C          1.09955       -1.46456        0.25883
C          2.45610       -1.49419        0.05579
C          3.15290       -2.80595       -0.04986
O          2.55824       -3.85913        0.06128
N          4.53026       -2.76146       -0.28281
C          5.25982       -4.02345       -0.39301
C          5.28858       -1.59723       -0.41949
O          6.48512       -1.66182       -0.62069
C          4.56852       -0.30114       -0.30491
C          5.26331        0.88016       -0.43006
H          6.33181        0.84535       -0.61269
C          4.58598        2.10765       -0.32069
C          3.22907        2.14072       -0.08471
C          2.55375        3.45907        0.02698
O          3.15630        4.50612       -0.10751
N          1.18884        3.42784        0.30684
C          0.48837        4.69867        0.48710
C          0.42223        2.27537        0.50799
O         -0.73418        2.38418        0.85941
C          1.09031        0.95746        0.28369
C          2.49021        0.94085        0.04723
C          3.17595       -0.28765       -0.06909
H          0.55643       -2.40105        0.32834
H          4.54395       -4.83195       -0.26503
H          6.03207       -4.07060        0.37706
H          5.73872       -4.08878       -1.37180
H          5.11639        3.04828       -0.42072
H          1.17168        5.49585        0.20453
H          0.18362        4.81342        1.52970
H         -0.40428        4.71345       -0.13988
