28
COMP29_000210.log	Energy: -1756588.6826372
C          1.43560       -0.08185        0.08627
C         -0.02324       -0.20792        0.19585
C         -0.73432       -1.04776        1.01908
C         -2.12957       -0.90704        0.85376
C         -2.45854        0.03246       -0.09948
S         -1.08255        0.77653       -0.79379
C         -3.89882        0.10590       -0.20850
C         -4.46113       -0.78572        0.67706
C         -3.38111       -1.51680        1.44149
H         -3.42574       -2.60071        1.28122
H         -3.45564       -1.34456        2.52201
C         -5.88048       -0.77661        0.63488
C         -6.35223        0.12144       -0.28122
H         -7.38278        0.33970       -0.52521
S         -5.08196        0.97021       -1.10600
C          2.05211        1.21406        0.19043
N          1.40582        2.36374        0.38284
S          2.53778        3.52833        0.43139
N          3.88327        2.63858        0.22024
C          3.47599        1.37463        0.10092
C          4.31503        0.24523       -0.08422
H          5.38944        0.36390       -0.14513
C          3.72329       -0.97699       -0.18004
Cl         4.74695       -2.36198       -0.40882
C          2.28906       -1.14796       -0.10690
Cl         1.65489       -2.75100       -0.31202
H         -0.25608       -1.72860        1.71292
H         -6.52651       -1.39680        1.24507
