54
COMP82_320002.log	Energy: -2077889.9649997
C          0.45428        0.44701       -0.10425
C          1.91408        0.58144       -0.01613
C          2.64386        1.54990        0.64541
C          2.05848        2.61026        1.40022
N          1.56751        3.47163        2.00118
C          4.05611        1.34553        0.53305
Cl         5.20400        2.38771        1.28542
C          4.39245        0.24209       -0.19872
S          2.96136       -0.55460       -0.77779
C          5.72395       -0.26476       -0.51800
S          6.76945        0.57297       -1.62614
C          8.00356       -0.59399       -1.45113
H          8.94216       -0.49813       -1.97897
C          7.64684       -1.59733       -0.58939
C          8.49436       -2.69888       -0.26274
N          9.18999       -3.58909       -0.00587
C          6.33142       -1.39996       -0.05593
Cl         5.61428       -2.48679        1.07124
C         -0.15202       -0.81243       -0.05352
C         -1.53785       -0.95773       -0.09535
C         -2.35070        0.17304       -0.16592
C         -3.80727        0.42807       -0.24563
C         -3.94583        1.94312       -0.33925
O         -4.92954        2.65187       -0.33945
N         -2.65622        2.41949       -0.34668
O         -2.34413        3.74080       -0.42889
C         -2.30301        4.33133        0.87863
C         -1.70365        1.42308       -0.24091
C         -0.33830        1.59592       -0.22705
C         -4.88236       -0.40665       -0.20842
C         -4.77979       -1.88212        0.16593
O         -3.81640       -2.58900        0.37441
N         -6.08126       -2.30729        0.30721
O         -6.39461       -3.63617        0.37630
C         -6.39569       -4.07360        1.73672
C         -7.00184       -1.36755       -0.14594
C         -8.35991       -1.54798       -0.31161
C         -9.08707       -0.46321       -0.80083
H        -10.15805       -0.56410       -0.94794
C         -8.45322        0.73747       -1.10961
C         -7.07906        0.89529       -0.93412
C         -6.32333       -0.16777       -0.43480
H          0.46071       -1.70212        0.05508
H         -1.98053       -1.94018       -0.04404
H         -2.06785        5.38094        0.70137
H         -1.51673        3.87143        1.48672
H         -3.27836        4.24033        1.36384
H          0.08701        2.58736       -0.32127
H         -6.68487       -5.12444        1.69165
H         -7.12380       -3.50542        2.32530
H         -5.39644       -3.97786        2.16963
H         -8.82266       -2.50198       -0.08750
H         -9.03299        1.56938       -1.49555
H         -6.60499        1.83445       -1.17292
