50
COMP61_400030.log	Energy: -1477866.8869328
C          2.61647        0.96731       -0.23726
C          1.20927        0.70416       -0.15554
C          0.61786       -0.53254       -0.35547
O          1.20061       -1.64813       -0.76519
C         -0.82311       -0.48658       -0.22288
C         -1.71343       -1.56205       -0.30371
C         -1.26831       -2.99253       -0.36292
O         -1.64745       -3.78485       -1.19237
O         -0.47740       -3.28985        0.66742
C          0.09043       -4.59963        0.64556
C         -3.07320       -1.27563       -0.27435
S         -4.36569       -2.43511       -0.47185
C         -5.54669       -1.17342       -0.26124
H         -6.59962       -1.40733       -0.35339
C         -5.00872        0.05394       -0.06101
O         -5.67081        1.22871        0.03665
C         -3.56114        0.03344       -0.02829
C         -2.66085        1.08843        0.18495
C         -3.10486        2.41839        0.70930
O         -3.83871        2.57552        1.65078
O         -2.51457        3.42314        0.04117
C         -2.79821        4.73283        0.53546
C         -1.30201        0.81789        0.01908
S          0.00842        1.96561        0.15722
C          3.66087        0.07848       -0.01952
C          3.94848       -1.24801        0.44076
O          3.21682       -2.21870        0.70403
N          5.34600       -1.28940        0.53881
C          6.07238       -2.47016        0.95371
C          5.90387       -0.06846        0.19967
H          6.97235        0.08359        0.26581
C          4.90130        0.77341       -0.15606
C          4.60921        2.15578       -0.50762
O          5.31392        3.10689       -0.76175
N          3.17768        2.20400       -0.52722
C          2.51446        3.40364       -1.00079
H          1.97031       -1.93071       -0.17446
H          0.75393       -4.64180        1.50795
H          0.65485       -4.74578       -0.27828
H         -0.69197       -5.35879        0.71746
H         -6.62062        1.06165        0.02655
H         -2.21961        5.41125       -0.09018
H         -2.49829        4.82200        1.58221
H         -3.86624        4.94478        0.44902
H          5.34230       -3.27009        1.08389
H          6.58859       -2.29796        1.90297
H          6.79870       -2.76383        0.19072
H          3.30175        4.06120       -1.37351
H          1.98497        3.91744       -0.19379
H          1.81547        3.17002       -1.80681
