50
COMP92_040002.log	Energy: -1524850.0665958
C         -0.24275       -0.32834       -0.40317
C          1.19815       -0.60475       -0.54473
C          1.77961       -1.40951       -1.48334
H          1.23528       -1.86437       -2.30488
C          3.17711       -1.55446       -1.28102
O          4.00781       -2.28814       -2.06997
C          3.65426       -0.89142       -0.17305
S          2.34696       -0.06119        0.62752
C          5.01732       -0.85261        0.31589
S          6.33163       -1.68402       -0.47885
C          7.46766       -1.12156        0.68115
H          8.50946       -1.39814        0.59723
C          6.89178       -0.33861        1.63494
H          7.43107        0.11700        2.45873
C          5.49227       -0.18749        1.42312
O          4.65704        0.53763        2.21598
C         -1.08188       -1.46023       -0.23002
C         -2.42709       -1.33359       -0.00296
C         -3.24952       -2.56180        0.17149
O         -2.81143       -3.68426        0.06381
N         -4.59940       -2.32662        0.46022
O         -5.34594       -3.43278        0.76257
C         -5.97652       -3.95821       -0.40650
C         -5.25697       -1.09448        0.57427
O         -6.44396       -1.03258        0.80026
C         -4.39198        0.10054        0.37786
C         -4.95074        1.35438        0.47908
H         -6.00892        1.44403        0.69901
C         -4.14875        2.49395        0.29957
C         -2.80808        2.36720        0.01009
C         -2.00770        3.60456       -0.17964
O         -2.45023        4.72159       -0.03278
N         -0.68221        3.38043       -0.55248
O          0.00815        4.48987       -0.96080
C          0.80422        5.00777        0.10477
C         -0.03055        2.15241       -0.76779
O          1.08221        2.13199       -1.23553
C         -0.81730        0.93960       -0.38588
C         -2.20434        1.08956       -0.10245
C         -3.01471       -0.05132        0.09502
H          3.53291       -2.57837       -2.85645
H          5.16016        0.92932        2.93829
H         -0.64315       -2.45213       -0.25604
H         -6.52718       -4.83008       -0.05219
H         -5.22754       -4.26595       -1.14202
H         -6.67096       -3.22654       -0.82993
H         -4.56902        3.49019        0.38503
H          1.29869        5.88097       -0.32178
H          1.55206        4.27353        0.41942
H          0.17089        5.31111        0.94407
