29
COMP41_200011.log	Energy: -1840193.6586607
C          2.48995        0.43006        0.33304
C          1.03814        0.33041        0.23036
C          0.13390        1.28462       -0.12358
Cl         0.54394        2.89471       -0.61259
C         -1.23679        0.84452       -0.09547
C         -2.39043        1.56365       -0.40765
H         -2.32753        2.60089       -0.71980
C         -3.60440        0.90431       -0.30271
S         -5.18810        1.57625       -0.63317
C         -5.95049        0.06319       -0.23578
H         -7.02528       -0.03848       -0.29428
C         -5.06539       -0.88945        0.12505
Cl        -5.51496       -2.50096        0.57678
C         -3.68941       -0.45220        0.10268
C         -2.53715       -1.17080        0.41114
H         -2.59923       -2.21014        0.71656
C         -1.32145       -0.51016        0.30873
S          0.25327       -1.18611        0.63174
C          3.45416       -0.44457       -0.08688
C          3.52851       -1.72349       -0.85098
O          2.65697       -2.41243       -1.31974
N          4.90261       -1.99126       -0.92763
H          5.26591       -2.81151       -1.39217
C          5.73062       -1.04713       -0.30568
O          6.93430       -1.08907       -0.25260
C          4.77553       -0.04334        0.23483
C          4.84518        1.13038        0.91251
H          5.71852        1.66286        1.26344
S          3.26130        1.76195        1.16453
