36
COMP26_000410.log	Energy: -871634.2816677
C         -1.77048       -0.48497       -0.00563
C         -0.29186       -0.51249       -0.10215
C          0.47428        0.44807        0.57206
C          1.85359        0.41411        0.46739
C          2.87917        1.33406        1.08916
H          2.73598        2.37449        0.77156
H          2.82698        1.32559        2.18515
C          4.18431        0.76492        0.58139
C          5.48249        1.19280        0.81621
C          6.53972        0.49854        0.22736
H          7.56118        0.82332        0.40237
C          6.29679       -0.61008       -0.58478
C          4.99478       -1.04327       -0.82274
C          3.94063       -0.35064       -0.23544
C          2.48988       -0.56744       -0.30627
C          1.73879       -1.52362       -0.98075
C          0.35350       -1.48938       -0.87325
C         -2.50756        0.74205       -0.15677
N         -1.98190        1.93938       -0.40546
S         -3.22371        2.99159       -0.50791
N         -4.47604        1.97944       -0.23144
C         -3.94873        0.77195       -0.05704
C         -4.67976       -0.42300        0.20157
H         -5.76154       -0.39569        0.28086
C         -3.96173       -1.56736        0.33973
O         -4.49683       -2.79379        0.59554
C         -2.51636       -1.61004        0.23824
O         -1.92673       -2.81245        0.41472
H         -0.01635        1.21449        1.16359
H          5.67741        2.05645        1.44668
H          7.13150       -1.13806       -1.03650
H          4.80875       -1.90688       -1.45526
H          2.21906       -2.28622       -1.58744
H         -0.24230       -2.22988       -1.39589
H         -5.45667       -2.72934        0.66669
H         -2.61905       -3.46083        0.61126
