36
COMP51_000000.log	Energy: -1502931.9581195
C          1.49136        0.53296        0.10032
C          0.04303        0.43123        0.05890
C         -0.71547       -0.69237        0.13902
H         -0.27943       -1.67724        0.26097
C         -2.13233       -0.44397        0.07544
C         -3.18413       -1.36901        0.13395
C         -2.97677       -2.85248        0.27163
C         -4.46714       -0.83512        0.05213
S         -5.94610       -1.77473        0.09709
C         -6.90321       -0.32930       -0.05724
H         -7.98208       -0.40780       -0.07918
C         -6.16525        0.79841       -0.13960
H         -6.60869        1.78138       -0.24008
C         -4.74274        0.55073       -0.08039
C         -3.68945        1.47568       -0.13650
C         -3.89540        2.95978       -0.27307
C         -2.40813        0.94185       -0.05522
S         -0.93098        1.88304       -0.11054
C          2.26458        1.62370        0.40721
H          1.87210        2.59754        0.67633
N          3.61502        1.43433        0.38095
C          3.89800        0.20425        0.05643
S          2.52543       -0.81568       -0.25540
C          5.25166       -0.31581       -0.04965
S          6.63170        0.69518        0.26055
C          7.64117       -0.65689       -0.08057
H          8.71829       -0.58366       -0.03235
C          6.88174       -1.74420       -0.39479
H          7.27086       -2.72220       -0.64929
N          5.52738       -1.54739       -0.37631
H         -1.92201       -3.11811        0.36094
H         -3.38282       -3.38370       -0.59751
H         -3.49248       -3.23693        1.15963
H         -4.95061        3.22466       -0.35863
H         -3.38337        3.34470       -1.16315
H         -3.48651        3.49117        0.59478
