30
COMP52_030200.log	Energy: -2098271.0425896
C          0.57812       -0.28104       -0.31335
C         -0.80088        0.18084       -0.30347
C         -1.21853        1.47768       -0.45412
H         -0.55417        2.30992       -0.65412
C         -2.62574        1.62593       -0.32454
C         -3.27645        2.89401       -0.42746
N         -3.78320        3.93290       -0.51636
C         -3.27728        0.43183       -0.07326
S         -2.14835       -0.87286       -0.00652
C         -4.70638        0.19206        0.08063
S         -5.86435        0.94980       -0.95599
C         -7.17783        0.16811       -0.17226
H         -8.19194        0.35975       -0.49437
C         -6.76429       -0.64688        0.83555
H         -7.42450       -1.23070        1.46380
C         -5.34474       -0.63841        0.98481
C         -4.67170       -1.39094        1.99609
N         -4.14711       -2.01176        2.82297
C          1.13012       -1.50122       -0.62519
Cl         0.23069       -2.89569       -1.09984
N          2.48042       -1.60535       -0.56119
C          3.00076       -0.46784       -0.19536
S          1.86867        0.80546        0.10992
C          4.42969       -0.25303       -0.04033
S          5.57812       -1.52180       -0.31871
C          6.83304       -0.41471        0.07524
H          7.87591       -0.69487        0.06548
C          6.29000        0.79901        0.37949
Cl         7.21389        2.18721        0.82901
N          4.93617        0.89536        0.31589
