45
COMP79_000031.log	Energy: -1836877.2926657
C         -1.64188        1.57896        0.30457
C         -0.23625        1.24884        0.12635
C          0.44183        0.12196        0.52489
C          1.81245        0.20379        0.21226
C          2.17307        1.37301       -0.41421
S          0.83669        2.41649       -0.64063
C          3.58771        1.33430       -0.70891
C          4.10669        0.13772       -0.27451
C          3.01278       -0.71615        0.34403
C          3.30407       -1.10946        1.79348
O          2.58311       -0.89451        2.73163
O          4.48062       -1.74169        1.86825
C          4.82512       -2.23627        3.16335
C          2.70457       -2.00824       -0.42819
O          2.32511       -3.02199        0.10396
O          2.84326       -1.84430       -1.74159
C          2.42408       -2.95417       -2.53927
C          5.49629        0.00844       -0.52421
C          5.99292        1.11889       -1.14611
H          7.01262        1.30650       -1.45285
S          4.78198        2.33036       -1.43355
C         -2.78197        0.80117        0.20550
C         -2.85163       -0.62846       -0.18957
O         -1.88226       -1.33290       -0.41358
C         -4.23093       -1.17017       -0.30030
C         -4.51348       -2.45793       -0.65523
H         -3.80203       -3.23215       -0.90707
S         -6.20679       -2.75068       -0.65838
C         -6.55718       -1.13878       -0.17780
H         -7.57205       -0.79612       -0.02981
C         -5.41352       -0.40953       -0.02320
C         -5.35769        1.01055        0.38039
O         -6.34873        1.67740        0.61851
C         -3.98143        1.56163        0.45851
C         -3.73899        2.87154        0.74110
H         -4.47893        3.63133        0.95183
S         -2.06330        3.21744        0.72675
H         -0.03168       -0.71463        1.01655
H          5.79762       -2.71248        3.04493
H          4.08042       -2.96152        3.49860
H          4.88225       -1.41718        3.88374
H          2.60769       -2.65675       -3.57067
H          1.36193       -3.15225       -2.37783
H          3.00093       -3.84668       -2.28618
H          6.09514       -0.85145       -0.25337
