39
COMP41_300021.log	Energy: -1522815.5779921
C         -2.73924        0.45982        0.29640
C         -1.28730        0.34255        0.21627
C         -0.37479        1.31987       -0.10265
C         -0.74426        2.65211       -0.45741
N         -1.05485        3.73866       -0.71897
C          0.99222        0.84831       -0.06645
C          2.17903        1.53913       -0.34014
O          2.18024        2.84359       -0.72537
C          2.25016        3.78442        0.34614
C          3.36798        0.82541       -0.25368
S          4.95834        1.47706       -0.57387
C          5.68284       -0.05169       -0.22146
H          6.75631       -0.16998       -0.28602
C          4.78893       -1.02176        0.11360
C          5.19160       -2.35745        0.42087
N          5.54315       -3.43931        0.64473
C          3.41991       -0.54326        0.10047
C          2.23608       -1.23248        0.37542
O          2.23554       -2.53742        0.75668
C          2.14147       -3.47623       -0.31733
C          1.04587       -0.51814        0.28943
S         -0.53399       -1.18252        0.58738
C         -3.70771       -0.43723       -0.06972
C         -3.79282       -1.77722       -0.72401
O         -2.92371       -2.52128       -1.10702
N         -5.16724       -2.02336       -0.81533
H         -5.53626       -2.87267       -1.21935
C         -5.99027       -1.01276       -0.29790
O         -7.19477       -1.02627       -0.27354
C         -5.02673        0.01377        0.18130
C         -5.09032        1.24434        0.75197
H         -5.96185        1.81859        1.03532
S         -3.50548        1.87337        0.98363
H          2.14690        4.76765       -0.11176
H          3.21232        3.70942        0.86631
H          1.43367        3.63098        1.05976
H          2.23519       -4.46104        0.13896
H          2.95481       -3.33180       -1.03613
H          1.17532       -3.38744       -0.82725
