36
COMP57_330000.log	Energy: -1685764.2418056
C         -2.55637       -0.18829       -0.18331
C         -1.18443        0.27904       -0.13658
C         -0.68065        1.56291       -0.17638
C         -1.48146        2.73950       -0.27247
N         -2.12194        3.70295       -0.34603
C          0.75274        1.60772       -0.13370
C          1.47759        2.83427       -0.17365
N          2.08347        3.82266       -0.20386
C          1.33568        0.35740       -0.06176
S          0.10738       -0.86546       -0.02223
C          2.72114       -0.07484       -0.00790
C          3.79730        0.73565        0.00103
C          5.18306        0.30018        0.05305
C          5.76241       -0.95653        0.06847
C          5.03791       -2.18299        0.03028
N          4.43465       -3.17306        0.00017
C          7.19682       -0.90817        0.12544
C          8.03482       -2.06533        0.14957
N          8.71968       -2.99944        0.16889
C          7.67677        0.37219        0.15141
H          8.71261        0.67798        0.19438
S          6.41320        1.52211        0.10720
C         -2.98338       -1.42311       -0.61208
H         -2.33444       -2.19552       -1.01038
N         -4.31949       -1.65573       -0.53979
C         -4.93627       -0.60956       -0.05865
S         -3.92708        0.74295        0.33971
C         -6.37519       -0.53899        0.13715
S         -7.41177       -1.87188       -0.26949
C         -8.75042       -0.93059        0.25918
H         -9.75955       -1.31585        0.22395
C         -8.32723        0.29141        0.69386
H         -8.97059        1.07321        1.07732
N         -6.97928        0.50896        0.62296
H          2.85925       -1.15086        0.02903
H          3.66049        1.81193       -0.03154
