35
COMP39_000020.log	Energy: -1254719.3138187
C         -2.47755       -0.09578        0.02210
C         -1.01311       -0.16780        0.02210
C         -0.13048        0.87344        0.21547
C          1.21109        0.47107        0.06944
C          1.34322       -0.86530       -0.20811
S         -0.16165       -1.66624       -0.30992
C          2.75460       -1.20936       -0.25009
C          3.50381       -0.08549       -0.01410
C          2.58851        1.12043        0.22035
O          2.91769        2.06417       -0.76091
C          2.03227        3.16409       -0.85963
O          2.62864        1.66869        1.50865
C          3.89223        2.15654        1.91666
C          4.89766       -0.31845       -0.12714
C          5.16483       -1.62746       -0.42124
H          6.13073       -2.09642       -0.54837
S          3.72537       -2.58112       -0.58921
C         -3.15080        1.08404       -0.32489
F         -2.46911        2.17489       -0.69008
C         -4.53603        1.16727       -0.31105
F         -5.11206        2.32164       -0.65125
C         -5.31715        0.07883        0.03661
H         -6.39772        0.14694        0.04365
C         -4.67293       -1.09915        0.37133
F         -5.38118       -2.17631        0.71321
C         -3.28787       -1.18387        0.36814
F         -2.73074       -2.35230        0.70344
H         -0.44736        1.87730        0.46007
H          2.51867        3.89021       -1.51322
H          1.84866        3.62069        0.11979
H          1.07646        2.86418       -1.30719
H          4.32094        2.83431        1.16963
H          4.59308        1.33370        2.10682
H          3.72318        2.70047        2.84754
H          5.66722        0.43414       -0.00812
