26
COMP54_000300.log	Energy: -1472928.4794800
C          0.49026        0.49424       -0.01563
C          1.89769        0.14526        0.00298
C          2.42543       -1.08110       -0.32320
H          1.82977       -1.91688       -0.67183
C          3.83261       -1.09998       -0.17046
S          5.08103       -2.27715       -0.41591
C          6.28843       -1.12762        0.07725
H          7.32767       -1.42709        0.09296
C          5.78125        0.09077        0.41113
H          6.38431        0.92753        0.73933
C          4.36312        0.10312        0.26808
S          3.13151        1.29094        0.50051
C         -0.13666        1.72307       -0.12352
C          0.53397        2.98095       -0.24705
N          1.07729        4.00015       -0.34349
N         -1.50651        1.70953       -0.12756
C         -1.94753        0.49337       -0.02415
S         -0.72593       -0.73541        0.10781
C         -3.36153        0.15324       -0.01487
S         -4.58408        1.38569       -0.14340
C         -5.77329        0.15627       -0.05016
H         -6.83141        0.37314       -0.08636
C         -5.17420       -1.06940        0.06756
C         -5.89318       -2.30540        0.16505
N         -6.49815       -3.29000        0.24121
N         -3.80251       -1.06581        0.08752
