31
COMP59_000310.log	Energy: -1545392.2044244
C         -0.34893        0.41203        0.08597
C          1.04443        0.02894        0.10713
C          1.53730       -1.24156        0.34200
C          2.93964       -1.29802        0.26188
C          3.50159       -0.07106       -0.03273
S          2.33896        1.17116       -0.21332
C          4.93710       -0.21310       -0.09076
C          5.26573       -1.52656        0.16543
C          4.01945       -2.34320        0.41792
H          4.01604       -2.79395        1.41729
H          3.90937       -3.15831       -0.30730
C          6.66512       -1.75806        0.11763
C          7.35389       -0.61329       -0.17304
H          8.42367       -0.49099       -0.27253
S          6.31881        0.76188       -0.39421
C         -0.95445        1.65789        0.13901
C         -0.26020        2.90388        0.23532
N          0.30973        3.91073        0.31046
N         -2.32403        1.67335        0.10719
C         -2.79027        0.46567        0.03087
S         -1.59245       -0.79477       -0.02589
C         -4.20971        0.15473       -0.01095
S         -5.40980        1.41590        0.03221
C         -6.62169        0.20794       -0.05756
H         -7.67552        0.44729       -0.06627
C         -6.04519       -1.03260       -0.11142
C         -6.78719       -2.25640       -0.18967
N         -7.41013       -3.23076       -0.25201
N         -4.67378       -1.05796       -0.08504
H          0.89955       -2.08783        0.57494
H          7.14643       -2.71388        0.28686
