39
COMP21_400020.log	Energy: -1441788.7470491
C          2.75138        0.92461        0.13314
C          1.32685        0.59166        0.03419
C          0.64980       -0.59045        0.22818
O          1.14418       -1.80002        0.51878
C         -0.79150       -0.45196        0.12809
C         -1.79374       -1.41850        0.29112
O         -1.55462       -2.72332        0.59962
C         -1.16338       -3.52973       -0.50593
C         -3.11498       -1.00165        0.16536
S         -4.49756       -2.05618        0.33215
C         -5.57046       -0.71919       -0.00154
H         -6.64073       -0.88096       -0.01643
C         -4.92479        0.45240       -0.21568
O         -5.48877        1.65688       -0.48918
C         -3.48473        0.33218       -0.12203
C         -2.48165        1.29589       -0.28695
O         -2.73299        2.59991       -0.59932
C         -3.11928        3.40392        0.50957
C         -1.16385        0.87960       -0.15329
S          0.21528        1.92546       -0.32812
C          3.81997       -0.03016       -0.02997
N          3.68687       -1.33854       -0.24824
S          5.18308       -1.97782       -0.36680
N          6.06147       -0.63207       -0.15478
C          5.20552        0.37573        0.02291
C          5.56039        1.73402        0.24548
H          6.60407        2.02251        0.27934
C          4.53700        2.61822        0.40934
H          4.75234        3.66701        0.58805
C          3.16841        2.22040        0.35610
H          2.42161        2.99295        0.50825
H          2.09701       -1.83206        0.28535
H         -1.05806       -4.54324       -0.11624
H         -0.20546       -3.19302       -0.91234
H         -1.93266       -3.51358       -1.28767
H         -6.44695        1.55033       -0.52441
H         -3.23022        4.41813        0.12304
H         -2.34637        3.38862        1.28774
H         -4.07416        3.06488        0.92310
