50
COMP87_320001.log	Energy: -1982835.7512987
C         -0.93080        0.59151       -0.10695
C          0.51613        0.84861       -0.18005
C          1.19805        2.00686       -0.44055
Cl         0.45267        3.52065       -0.81703
C          2.62142        1.86098       -0.42917
C          3.50886        2.94387       -0.69248
N          4.24711        3.81432       -0.89978
C          3.02417        0.56543       -0.15145
S          1.64031       -0.44118        0.09178
C          4.33695       -0.04317       -0.02725
C          5.51507        0.60708       -0.09090
C          6.82789       -0.00178        0.03854
C          7.23171       -1.31774        0.20067
C          6.35004       -2.43411        0.26898
N          5.61919       -3.33326        0.32383
C          8.65586       -1.44605        0.28833
Cl         9.44566       -2.96701        0.49348
C          9.31113       -0.25874        0.19350
H         10.37764       -0.09121        0.23167
S          8.20807        1.04217       -0.00438
C         -1.48041       -0.53232       -0.73086
C         -2.84122       -0.81637       -0.65263
C         -3.68918        0.02878        0.06357
C         -5.14583        0.08644        0.32026
C         -5.34379        1.35885        1.13345
O         -6.35074        1.84078        1.61109
N         -4.09485        1.90620        1.30038
H         -3.95810        2.76545        1.80905
C         -3.11012        1.16528        0.66850
C         -1.76259        1.45926        0.61128
C         -6.16833       -0.75154       -0.01542
C         -5.94423       -2.13777       -0.61563
O         -4.91182       -2.72169       -0.87870
N         -7.18753       -2.68765       -0.78424
H         -7.30880       -3.61345       -1.16315
C         -8.20073       -1.82283       -0.39339
C         -9.56272       -2.04614       -0.47548
C        -10.41146       -1.02433       -0.05325
H        -11.48633       -1.16925       -0.10461
C         -9.89142        0.17483        0.42418
C         -8.51532        0.38294        0.50347
C         -7.63730       -0.62681        0.10046
H          4.32449       -1.11637        0.13728
H          5.52770        1.68163       -0.24583
H         -0.84037       -1.19256       -1.30795
H         -3.23561       -1.69518       -1.13706
H         -1.35959        2.33236        1.11229
H         -9.95383       -2.98204       -0.86184
H        -10.56340        0.96391        0.74535
H         -8.12757        1.31278        0.88786
