46
COMP61_000022.log	Energy: -1335566.3123387
C         -2.00058        0.81813        0.02041
C         -0.57010        0.67371        0.04013
C          0.04969       -0.54433        0.07270
H         -0.49923       -1.47998        0.12570
C          1.47372       -0.44458        0.03167
C          2.41826       -1.48168        0.04311
O          2.05868       -2.79346        0.11931
C          1.53701       -3.34291       -1.08874
C          3.75977       -1.12933        0.01329
S          5.11271       -2.23491        0.01768
C          6.22670       -0.89561       -0.05383
H          7.28972       -1.09672       -0.08117
C          5.62872        0.31668       -0.07303
H          6.16071        1.25815       -0.13095
C          4.19209        0.22051       -0.02948
C          3.24866        1.25241       -0.03825
O          3.62958        2.56605       -0.09069
C          3.91458        3.12630        1.18623
C          1.90476        0.90524       -0.01578
S          0.56434        2.02240       -0.01274
C         -2.97126       -0.16140        0.02611
C         -3.13726       -1.59734       -0.03369
O         -2.37216       -2.54854       -0.06218
N         -4.55738       -1.71894       -0.02830
O         -5.20184       -2.90762       -0.20379
C         -5.19161       -3.66818        1.00817
C         -5.21324       -0.51158       -0.02582
H         -6.29269       -0.47754       -0.06001
C         -4.26610        0.46335        0.01466
C         -4.09615        1.90883        0.02493
O         -4.85101        2.85331        0.04421
N         -2.66946        2.02818       -0.02783
O         -2.04315        3.22591        0.15795
C         -2.07855        4.00703       -1.04433
H          1.36213       -4.40027       -0.88862
H          2.26194       -3.23557       -1.90419
H          0.59102       -2.86837       -1.37017
H          4.17499        4.17135        1.01232
H          4.75711        2.61113        1.66391
H          3.03927        3.07175        1.84472
H         -5.73771       -4.58150        0.76894
H         -5.70106       -3.12265        1.81037
H         -4.16512       -3.90704        1.29686
H         -1.52106        4.91199       -0.80091
H         -3.11214        4.25221       -1.29790
H         -1.58847        3.47212       -1.86425
