62
COMP91_100032.log	Energy: -1888705.2705859
C         -1.26051       -0.04857        0.09595
C          0.21551       -0.11624        0.15272
C          1.02077       -0.77246       -0.70498
F          0.54493       -1.35862       -1.80387
C          2.42771       -0.70654       -0.39148
C          3.53182       -1.23939       -1.07093
C          3.43782       -2.21055       -2.20127
O          4.20181       -2.22106       -3.13997
O          2.47851       -3.11493       -2.00871
C          2.31831       -4.07088       -3.05794
C          4.80501       -0.89158       -0.61956
S          6.31953       -1.40614       -1.33036
C          7.20798       -0.62294       -0.05885
H          8.28709       -0.67265       -0.02440
C          6.41337        0.01547        0.82182
F          6.87955        0.63611        1.90234
C          5.00321       -0.08441        0.52869
C          3.89929        0.43141        1.22232
C          4.06942        1.43325        2.32046
O          4.85308        2.34752        2.29982
O          3.19171        1.21915        3.31287
C          3.20633        2.19094        4.36127
C          2.62642        0.09770        0.76000
S          1.10819        0.63013        1.45440
C         -1.96751       -1.14724        0.64039
C         -3.33858       -1.17051        0.66995
C         -4.02934       -2.35130        1.25801
O         -3.44896       -3.32215        1.68593
N         -5.42649       -2.26688        1.27008
O         -6.07909       -3.27412        1.92690
C         -6.42428       -4.33052        1.02867
C         -6.23419       -1.23300        0.77868
O         -7.44104       -1.29947        0.82367
C         -5.49429       -0.08083        0.19422
C         -6.20455        0.98553       -0.30634
H         -7.28812        0.96216       -0.26447
C         -5.52448        2.08464       -0.85979
C         -4.14893        2.10212       -0.90948
C         -3.47790        3.28379       -1.51069
O         -4.07001        4.25127       -1.93182
N         -2.08496        3.20082       -1.54755
O         -1.44939        4.19599       -2.23829
C         -1.06011        5.25742       -1.36448
C         -1.25553        2.17556       -1.06800
O         -0.05540        2.26524       -1.17352
C         -1.96750        1.02339       -0.43242
C         -3.38920        1.01816       -0.40151
C         -4.07909       -0.08148        0.15780
H          1.51216       -4.72683       -2.73295
H          3.24250       -4.63464       -3.20264
H          2.05357       -3.56864       -3.99127
H          2.43255        1.87660        5.06005
H          2.98877        3.18426        3.96225
H          4.18371        2.20578        4.84823
H         -1.41589       -1.98814        1.04740
H         -6.92708       -5.06798        1.65482
H         -5.52454       -4.76888        0.58712
H         -7.10986       -3.96945        0.25650
H         -6.06834        2.93471       -1.25720
H         -0.57548        5.98396       -2.01706
H         -0.34764        4.89785       -0.61633
H         -1.93856        5.70773       -0.89305
