32
COMP51_000310.log	Energy: -1569314.4668183
C         -0.64454        0.71210       -0.04180
C          0.79530        0.52233       -0.00876
C          1.45556       -0.62138       -0.34266
H          0.95992       -1.51185       -0.71483
C          2.87694       -0.52695       -0.18050
C          3.84603       -1.50181       -0.43375
H          3.55994       -2.48202       -0.80243
C          5.17116       -1.17343       -0.19912
S          6.56473       -2.20685       -0.43193
C          7.63103       -0.93755        0.10614
H          8.69645       -1.12325        0.13940
C          6.99017        0.20253        0.44338
H          7.49291        1.09415        0.79900
C          5.56037        0.10731        0.28038
C          4.59231        1.08125        0.52865
H          4.87721        2.06365        0.89208
C          3.26494        0.75157        0.29659
S          1.88262        1.79444        0.52891
C         -1.40194        1.85850       -0.19583
C         -0.87395        3.17790       -0.36968
N         -0.45392        4.24885       -0.50868
N         -2.76175        1.69256       -0.20074
C         -3.06445        0.43872       -0.05081
S         -1.71503       -0.64019        0.12617
C         -4.43224       -0.05564       -0.02497
S         -5.78411        1.02794       -0.19573
C         -6.82903       -0.32175       -0.05310
H         -7.90457       -0.22380       -0.09359
C         -6.09780       -1.46810        0.11039
C         -6.67611       -2.77068        0.26145
N         -7.16860       -3.81194        0.38162
N         -4.73513       -1.31115        0.12577
