58
COMP95_000030.log	Energy: -1110573.8463945
C         -0.72180       -0.50632       -0.53556
C          0.74008       -0.73564       -0.70191
C          1.63289       -0.13255        0.18345
C          2.98548       -0.41199        0.04351
N          4.10574        0.05300        0.77409
C          4.13976        0.93027        1.84524
O          5.15128        1.29275        2.40000
O          2.91134        1.32872        2.19852
C          2.87146        2.24045        3.29685
C          5.27023       -0.52908        0.21761
C          6.60762       -0.37635        0.57650
C          7.55173       -1.08181       -0.16190
H          8.60113       -0.97672        0.09621
C          7.18552       -1.91474       -1.22463
C          5.85040       -2.05896       -1.57357
C          4.88898       -1.35984       -0.84726
C          3.44566       -1.28638       -0.95829
C          2.54379       -1.89375       -1.82536
C          1.19062       -1.62285       -1.68753
C         -1.50360       -1.64597       -0.21472
C         -2.84963       -1.55621        0.03181
C         -3.61811       -2.78640        0.36704
O         -3.09268       -3.88105        0.40912
N         -4.98076       -2.61698        0.62965
C         -5.78073       -3.79491        0.95945
C         -5.66218       -1.39870        0.60290
O         -6.85219       -1.35403        0.84574
C         -4.87042       -0.18579        0.26727
C         -5.48789        1.04402        0.23217
H         -6.54816        1.10897        0.45061
C         -4.74136        2.19263       -0.08191
C         -3.39596        2.09876       -0.36552
C         -2.64605        3.33975       -0.68601
O         -3.17357        4.43549       -0.67394
N         -1.30223        3.17573       -1.01172
C         -0.53903        4.35566       -1.41392
C         -0.62628        1.95149       -1.10350
O          0.49583        1.93176       -1.56408
C         -1.34929        0.73208       -0.62880
C         -2.73693        0.84661       -0.34190
C         -3.49121       -0.30032       -0.01222
H          1.27169        0.54280        0.94426
H          1.81416        2.44572        3.46062
H          3.40780        3.15947        3.05113
H          3.31712        1.78924        4.18569
H          6.89636        0.26776        1.39434
H          7.95097       -2.44926       -1.77844
H          5.55664       -2.70242       -2.39769
H          2.89410       -2.57086       -2.59827
H          0.47338       -2.08385       -2.36015
H         -1.02244       -2.61615       -0.14550
H         -5.11758       -4.65668        0.96434
H         -6.56940       -3.92477        0.21552
H         -6.24424       -3.66213        1.93872
H         -5.20866        3.17097       -0.10574
H         -1.13018        5.23428       -1.16664
H         -0.33881        4.32648       -2.48757
H          0.41430        4.36689       -0.88427
