27
COMP24_400300.log	Energy: -1317434.0728688
C          1.03668        0.13332        0.05904
C         -0.41935        0.04195        0.03413
C         -1.24116       -0.95502        0.54732
O         -0.90407       -2.07884        1.19476
C         -2.61483       -0.64525        0.36072
S         -4.09156       -1.45325        0.76174
C         -5.00007       -0.17828       -0.00749
H         -6.08113       -0.22480       -0.01842
C         -4.21473        0.80252       -0.54020
O         -4.58872        1.92009       -1.20398
C         -2.83133        0.53039       -0.31979
S         -1.36402        1.32242       -0.74098
C          1.86318       -1.03421       -0.14137
N          1.41718       -2.28562       -0.25647
S          2.71279       -3.24646       -0.48191
N          3.88506       -2.13048       -0.45035
C          3.29376       -0.95158       -0.25087
C          3.95939        0.29573       -0.14343
H          5.03553        0.36057       -0.24327
C          3.18559        1.39395        0.10004
C          3.83729        2.66749        0.24169
N          4.39915        3.67467        0.34695
C          1.74204        1.32145        0.22038
C          1.08883        2.54966        0.57174
N          0.63800        3.56759        0.89418
H         -0.06370       -2.41157        0.82533
H         -5.55130        1.96649       -1.24332
