50
COMP61_300003.log	Energy: -1499219.4530336
C          1.69204        0.75677       -0.34569
C          0.26129        0.48186       -0.26001
C         -0.68541        1.13078        0.49090
C         -0.35233        2.27116        1.28045
N         -0.04853        3.20198        1.90292
C         -2.00107        0.53463        0.38958
C         -3.19995        0.91815        1.01413
C         -3.28550        2.09729        1.94644
C         -4.30694        0.13523        0.70881
S         -5.91413        0.41475        1.36244
C         -6.54232       -0.93016        0.49496
H         -7.58873       -1.19166        0.57920
C         -5.61491       -1.57859       -0.25947
C         -6.00219       -2.71674       -1.03077
N         -6.35978       -3.63601       -1.64120
C         -4.28486       -0.98841       -0.16613
C         -3.08825       -1.36929       -0.78541
C         -2.92133       -2.53004       -1.72971
C         -1.97765       -0.58303       -0.47563
S         -0.38310       -0.87322       -1.12119
C          2.70930       -0.13108       -0.19938
C          2.96492       -1.54323        0.11088
O          2.22956       -2.48781        0.22279
N          4.41323       -1.56464        0.25508
C          5.25775       -2.64698        0.55610
O          6.45287       -2.51257        0.66516
O          4.57947       -3.77239        0.69466
C          5.37219       -4.92025        1.01375
C          4.95348       -0.28926        0.07316
H          6.01793       -0.14655        0.19034
C          3.95751        0.57232       -0.21129
C          3.69995        1.99630       -0.41785
O          4.43919        2.93293       -0.55564
N          2.24559        2.04463       -0.48095
C          1.49855        3.16448       -0.92051
O          0.48253        3.06288       -1.56182
O          2.06402        4.28322       -0.51355
C          1.36474        5.47869       -0.87094
H         -3.01898        3.02680        1.43442
H         -2.60236        1.98491        2.79330
H         -4.29296        2.22010        2.35145
H         -3.84877       -3.06386       -1.92558
H         -2.20180       -3.25155       -1.32413
H         -2.53058       -2.18171       -2.69335
H          4.66380       -5.74465        1.07116
H          5.87790       -4.77726        1.97105
H          6.11459       -5.09964        0.23333
H          1.99514        6.29231       -0.51709
H          0.39290        5.49776       -0.37333
H          1.22881        5.53518       -1.95291
