40
COMP67_410000.log	Energy: -1317191.6698515
C          2.88091        0.68441       -0.24617
C          1.49172        0.31853       -0.39845
C          1.02891       -0.89439       -0.83052
F          1.78769       -1.88223       -1.29974
C         -0.37843       -1.05723       -0.79448
O         -1.00095       -2.18868       -1.19406
C         -1.02212        0.06389       -0.32820
S          0.13563        1.30892        0.06055
C         -2.43550        0.31305       -0.12623
C         -3.42828       -0.54753       -0.44027
C         -4.83109       -0.29677       -0.16103
C         -5.37893        0.39742        0.89139
O         -4.72812        0.99099        1.91729
C         -6.80544        0.41179        0.84361
F         -7.52098        1.03724        1.77608
C         -7.33206       -0.26198       -0.20905
H         -8.37698       -0.38463       -0.45189
S         -6.08692       -0.95218       -1.18181
C          3.91551       -0.12844        0.13048
C          4.21085       -1.45890        0.64343
O          3.53129       -2.44765        0.84044
N          5.61018       -1.38813        0.92121
C          6.35457       -2.51474        1.43622
C          6.11385       -0.13795        0.64063
H          7.15628        0.08559        0.82788
C          5.11779        0.64845        0.15454
C          4.79416        2.01090       -0.24676
O          5.46406        3.01004       -0.40457
N          3.38277        1.96215       -0.46604
C          2.67826        3.10086       -1.01469
H         -0.32777       -2.85509       -1.39061
H         -2.68788        1.29242        0.27775
H         -3.18075       -1.48900       -0.92253
H         -3.82844        0.63441        1.95297
H          5.63761       -3.32252        1.59356
H          6.83157       -2.26693        2.38933
H          7.11610       -2.84444        0.72255
H          3.43966        3.83153       -1.29353
H          2.00932        3.55812       -0.27896
H          2.10251        2.81364       -1.89894
