52
COMP97_420000.log	Energy: -2055905.6080584
C          1.61006       -0.18929        0.35200
C          0.18548       -0.21429        0.74872
C         -0.32931       -0.49551        1.97589
Cl         0.61999       -0.79243        3.39792
C         -1.75734       -0.49419        2.02261
O         -2.49406       -0.73515        3.12571
C         -2.32242       -0.22201        0.80241
S         -1.08488        0.02003       -0.40070
C         -3.74188       -0.14072        0.53142
C         -4.30396        0.24561       -0.63097
C         -5.73562        0.24530       -0.88621
C         -6.67507       -0.65007       -0.43150
O         -6.45617       -1.73532        0.33886
C         -7.99241       -0.34760       -0.89943
Cl        -9.36603       -1.30979       -0.47945
C         -8.04011        0.74971       -1.70055
H         -8.91275        1.17993       -2.16999
S         -6.48056        1.44360       -1.91076
C          2.22539       -1.44309        0.11990
C          3.53788       -1.53331       -0.27078
C          4.14473       -2.87445       -0.49691
O          3.51031       -3.89829       -0.34142
N          5.48270       -2.89177       -0.89975
C          6.12596       -4.18396       -1.13207
C          6.27619       -1.76278       -1.11229
O          7.43137       -1.87931       -1.46989
C          5.64594       -0.43642       -0.87729
C          6.37976        0.71221       -1.06608
H          7.41270        0.62940       -1.38647
C          5.78789        1.96906       -0.84482
C          4.47693        2.06290       -0.43309
C          3.88812        3.40888       -0.21113
O          4.52227        4.42813       -0.39949
N          2.56634        3.43704        0.23254
C          1.95148        4.73552        0.50549
C          1.76855        2.31996        0.49383
O          0.65464        2.47475        0.95042
C          2.34898        0.97613        0.19218
C          3.70092        0.89718       -0.22968
C          4.29828       -0.36082       -0.46082
H         -1.90353       -0.87661        3.87886
H         -4.37198       -0.38040        1.38641
H         -3.66499        0.57651       -1.45003
H         -5.50192       -1.89765        0.37369
H          1.65093       -2.35387        0.25182
H          5.40244       -4.96222       -0.90208
H          7.00473       -4.27631       -0.49140
H          6.44461       -4.25647       -2.17387
H          6.35033        2.88419       -0.99430
H          2.64809        5.50631        0.18530
H          1.74420        4.83240        1.57333
H          1.01011        4.81534       -0.04011
