44
COMP67_020003.log	Energy: -1911674.7090917
C         -2.20877       -0.67148       -0.14955
C         -0.79324       -0.81974        0.12785
C         -0.14513       -1.69166        0.97290
Cl        -0.94911       -2.86902        1.95714
C          1.25214       -1.50531        1.03554
H          1.89757       -2.08885        1.67957
C          1.68049       -0.48605        0.21796
S          0.34969        0.25345       -0.60064
C          3.02847        0.00550       -0.01748
C          4.14423       -0.64362        0.35573
C          5.49705       -0.14802        0.15901
C          5.93035        1.07087       -0.29849
H          5.27821        1.88861       -0.57880
C          7.34703        1.15112       -0.35229
Cl         8.18162        2.57457       -0.88989
C          7.98540        0.01919        0.06028
H          9.04918       -0.16040        0.11530
S          6.84730       -1.18117        0.52565
C         -2.94834        0.46932       -0.17112
C         -2.83498        1.90543        0.08463
O         -1.88632        2.61445        0.29979
N         -4.22480        2.33894       -0.00114
C         -4.76107        3.62749        0.14382
O         -5.94508        3.84465        0.03921
O         -3.82317        4.52329        0.40304
C         -4.29772        5.86206        0.56770
C         -5.07182        1.25735       -0.26157
H         -6.13755        1.42422       -0.31822
C         -4.32769        0.14065       -0.37850
C         -4.45232       -1.30750       -0.53307
O         -5.39456       -2.01122       -0.78211
N         -3.07932       -1.76035       -0.36427
C         -2.62494       -3.03914       -0.76568
O         -1.57987       -3.22518       -1.33531
O         -3.50330       -3.96546       -0.41987
C         -3.17472       -5.29157       -0.83891
H          3.11032        0.95855       -0.53532
H          4.05533       -1.61649        0.83493
H         -3.41128        6.44959        0.80068
H         -5.02174        5.91244        1.38366
H         -4.76510        6.21663       -0.35358
H         -4.01541       -5.90748       -0.52403
H         -2.25105       -5.61984       -0.35689
H         -3.05233       -5.33139       -1.92349
