43
COMP56_000220.log	Energy: -1747582.1008312
C          0.86257        0.20157       -0.46098
C         -0.54278       -0.22007       -0.55775
C         -1.54219        0.49951        0.11759
C         -2.85521        0.08750        0.01066
C         -4.11303        0.70693        0.63831
O         -3.99205        0.92692        2.02281
C         -3.68300       -0.20916        2.80123
O         -4.49507        1.91784        0.06899
C         -3.56899        2.98389        0.17069
C         -5.18002       -0.30937        0.24684
C         -6.52169       -0.29597        0.57849
C         -7.33533       -1.31888        0.08727
H         -8.39276       -1.33395        0.33356
C         -6.80230       -2.32142       -0.72314
C         -5.44755       -2.32847       -1.05554
C         -4.63943       -1.31285       -0.56030
C         -3.19300       -1.06586       -0.70947
C         -2.21195       -1.79006       -1.37221
C         -0.89086       -1.35488       -1.29991
C          1.43171        1.44379       -0.59381
Cl         0.55854        2.88855       -0.97763
N          2.77891        1.53364       -0.45244
C          3.28028        0.35604       -0.20475
S          2.12995       -0.93543       -0.12255
C          4.70074        0.12092       -0.00414
S          5.85326        1.41641       -0.09058
C          7.09735        0.27635        0.24375
H          8.13718        0.55794        0.31744
C          6.54873       -0.96265        0.39037
Cl         7.46035       -2.38902        0.73954
N          5.19967       -1.05690        0.25137
H         -1.27449        1.35043        0.73526
H         -3.64185        0.13310        3.83671
H         -2.71226       -0.64248        2.52718
H         -4.45546       -0.98354        2.70778
H         -4.11825        3.88502       -0.10765
H         -2.72959        2.85069       -0.52340
H         -3.19089        3.09259        1.19231
H         -6.92369        0.49377        1.20548
H         -7.45061       -3.10727       -1.09917
H         -5.04067       -3.11296       -1.68741
H         -2.45921       -2.68468       -1.93594
H         -0.11729       -1.90278       -1.83072
