44
COMP91_400011.log	Energy: -1429079.4891078
C          0.86325        0.00427        0.07728
C         -0.60006        0.10684        0.17608
C         -1.49674        0.79609       -0.59780
O         -1.21662        1.71535       -1.53229
C         -2.87005        0.40846       -0.37457
C         -3.99716        0.92604       -1.00974
H         -3.89051        1.69641       -1.76590
C         -5.23095        0.41826       -0.63200
S         -6.79758        0.87840       -1.26528
C         -7.59322       -0.26024       -0.20101
H         -8.67117       -0.35279       -0.22627
C         -6.72856       -0.94485        0.58368
O         -7.00615       -1.89371        1.51200
C         -5.34828       -0.57994        0.36522
C         -4.22000       -1.09228        1.00461
H         -4.32010       -1.85617        1.76815
C         -2.98729       -0.59274        0.61341
S         -1.42182       -1.03993        1.25027
C          1.35004       -1.33073       -0.07418
C          2.67756       -1.62250       -0.18718
C          3.09574       -3.03793       -0.39166
O          2.32039       -3.96562       -0.47494
N          4.46733       -3.23736       -0.48263
H          4.76739       -4.19552       -0.62226
C          5.48120       -2.29144       -0.39535
O          6.64634       -2.61445       -0.48794
C          5.02954       -0.88810       -0.18667
C          5.97049        0.11035       -0.06614
H          7.02279       -0.14314       -0.13181
C          5.55136        1.42859        0.15575
C          4.20796        1.73582        0.22663
C          3.82446        3.13717        0.50413
O          4.60608        4.04972        0.66741
N          2.45420        3.35017        0.56515
H          2.15947        4.31148        0.69619
C          1.43239        2.45827        0.30468
O          0.29123        2.90139        0.23964
C          1.80909        1.03728        0.13115
C          3.21124        0.73666        0.07549
C          3.64908       -0.59405       -0.10562
H         -0.57621        2.33040       -1.11591
H         -7.95930       -2.03584        1.55000
H          0.63917       -2.14712       -0.14116
H          6.27139        2.22976        0.28344
