36
COMP57_410400.log	Energy: -1767567.0217410
C          1.86129       -0.06270       -0.33896
C          0.50542        0.43909       -0.41290
C          0.06539        1.67008       -0.79498
F          0.86009        2.67580       -1.19020
C         -1.34410        1.85435       -0.76618
O         -1.95915        3.00236       -1.12154
C         -2.01382        0.72835       -0.36149
S         -0.87578       -0.53453        0.04290
C         -3.44987        0.58197       -0.27215
C         -4.11112       -0.55144        0.03732
C         -5.55365       -0.64640        0.17794
C         -6.42550        0.30862        0.64269
O         -6.13211        1.54774        1.09478
C         -7.77615       -0.15514        0.65362
F         -8.76998        0.62722        1.06973
C         -7.92953       -1.43038        0.21974
H         -8.85063       -1.98743        0.13602
S         -6.40885       -2.11693       -0.21743
C          2.31765       -1.32922       -0.64897
O          1.59624       -2.36663       -1.10541
N          3.64423       -1.54952       -0.47272
C          4.22987       -0.46758       -0.03836
S          3.20588        0.90759        0.19135
C          5.65558       -0.38942        0.23257
S          6.68865       -1.76142        0.00800
C          8.01408       -0.78859        0.52750
H          9.01729       -1.18555        0.58978
C          7.57362        0.47445        0.82404
O          8.29995        1.52237        1.26083
N          6.24179        0.69581        0.65661
H         -1.28788        3.64798       -1.38006
H         -4.00395        1.48305       -0.52931
H         -3.54916       -1.47079        0.20380
H         -5.17837        1.59724        1.25430
H          0.70365       -2.06906       -1.33292
H          9.22303        1.25500        1.34053
