38
COMP55_000020.log	Energy: -1108995.5964756
C         -1.24004        0.01071        0.18303
C          0.18586       -0.34005        0.16064
C          1.12107        0.63818       -0.18210
C          2.46286        0.27948       -0.16846
N          3.57213        1.03739       -0.48015
O          3.54329        2.39116       -0.66827
C          3.61424        3.07104        0.58895
C          4.72822        0.30084       -0.30750
C          6.05675        0.68343       -0.47085
C          7.02408       -0.28717       -0.24941
H          8.07170       -0.02804       -0.36927
C          6.67805       -1.59740        0.11622
C          5.34883       -1.96421        0.27458
C          4.35376       -1.00716        0.06917
C          2.90616       -1.02040        0.15832
C          1.95486       -1.98882        0.47842
C          0.61236       -1.64542        0.48492
C         -1.81051        1.21721        0.49415
H         -1.25481        2.09447        0.80368
N         -3.17257        1.28333        0.43146
C         -3.66812        0.13139        0.07588
S         -2.49703       -1.11800       -0.21634
C         -5.09156       -0.12512       -0.07699
S         -6.26578        1.13030        0.19132
C         -7.50212       -0.00755       -0.18733
H         -8.54735        0.26655       -0.17402
C         -6.95179       -1.21873       -0.48119
H         -7.50849       -2.10712       -0.75260
N         -5.58549       -1.28194       -0.41778
H          0.81616        1.63447       -0.48362
H          3.56936        4.13302        0.34370
H          4.55507        2.84129        1.09999
H          2.76651        2.79513        1.22518
H          6.31370        1.69423       -0.76896
H          7.46112       -2.33204        0.27463
H          5.08620       -2.97997        0.55585
H          2.25950       -3.00010        0.73088
H         -0.12611       -2.39099        0.76358
