46
COMP71_100031.log	Energy: -1985301.8457784
C         -1.81986       -1.40660       -0.74646
C         -0.45266       -0.97214       -0.50518
C          0.05158        0.26721       -0.71234
F         -0.67077        1.25245       -1.22704
C          1.45794        0.40032       -0.43647
C          2.28762        1.52835       -0.50441
C          1.78094        2.92445       -0.66058
O          2.36558        3.78800       -1.27646
O          0.65911        3.11606        0.02534
C          0.06023        4.40537       -0.10041
C          3.66018        1.33525       -0.35626
S          4.88974        2.56531       -0.55015
C          6.13200        1.41020       -0.17897
H          7.17607        1.68754       -0.21462
C          5.64853        0.17794        0.07266
F          6.43912       -0.87436        0.28388
C          4.20942        0.07842        0.01104
C          3.35724       -1.01685        0.22472
C          3.78220       -2.32334        0.80569
O          3.27299       -3.38184        0.50737
O          4.71014       -2.18196        1.74832
C          5.16945       -3.39411        2.34827
C          2.00511       -0.85755       -0.07950
S          0.78946       -2.11251       -0.01499
C         -3.01045       -0.84098       -0.34272
C         -3.16369        0.34519        0.54213
O         -2.23260        0.97856        1.00363
C         -4.57393        0.70000        0.84406
C         -4.94200        1.75532        1.62803
H         -4.28407        2.45315        2.12727
S         -6.65120        1.87492        1.75829
C         -6.89345        0.50043        0.75634
H         -7.88366        0.13651        0.51873
C         -5.70403       -0.02518        0.34020
C         -5.55984       -1.21699       -0.52305
O         -6.50690       -1.85100       -0.95156
C         -4.15054       -1.58130       -0.81502
C         -3.80751       -2.68059       -1.54522
H         -4.48727       -3.39332       -1.99207
S         -2.10989       -2.84023       -1.68915
H         -0.85898        4.35129        0.48041
H         -0.15840        4.62011       -1.14905
H          0.72804        5.17488        0.29388
H          5.92710       -3.09089        3.06900
H          5.59906       -4.05472        1.59180
H          4.34352       -3.90691        2.84658
