25
COMP24_000400.log	Energy: -1201725.4083390
C         -0.83733        0.43802       -0.01129
C          0.60396        0.16975       -0.01862
C          1.62054        1.08958       -0.14271
H          1.45170        2.14627       -0.27468
C          2.89845        0.48150       -0.07497
S          4.53344        1.05692       -0.16346
C          5.13734       -0.56239        0.04007
H          6.20549       -0.73203        0.05589
C          4.15376       -1.49480        0.16712
H          4.33995       -2.55285        0.30260
C          2.86369       -0.88855        0.10245
S          1.23837       -1.46999        0.17276
C         -1.82052       -0.61968       -0.03909
N         -1.54993       -1.91891       -0.07672
S         -2.97385       -2.71258       -0.09229
N         -3.99525       -1.44087       -0.05124
C         -3.23954       -0.34917       -0.02382
C         -3.72277        0.98784        0.01894
H         -4.78874        1.18816        0.02979
C         -2.78674        1.96944        0.04607
O         -3.06621        3.30262        0.09268
C         -1.36201        1.71309        0.03255
O         -0.56617        2.80260        0.06743
H         -4.01963        3.44343        0.12840
H         -1.13373        3.58654        0.12029
