36
COMP51_100000.log	Energy: -1627433.0809680
C          1.74215       -0.56432        0.01214
C          0.29942       -0.44210        0.00872
C         -0.44867        0.68894        0.01218
F          0.12290        1.90214        0.01877
C         -1.87796        0.51065        0.00746
C         -2.90613        1.46289        0.00980
C         -2.69503        2.95330        0.01869
C         -4.19853        0.94261        0.00289
S         -5.64904        1.92906        0.00332
C         -6.65487        0.51143       -0.00758
H         -7.73240        0.58982       -0.01087
C         -5.93150       -0.62430       -0.01144
F         -6.50149       -1.83621       -0.01991
C         -4.49721       -0.44284       -0.00570
C         -3.46637       -1.39468       -0.00740
C         -3.67828       -2.88516       -0.01617
C         -2.17686       -0.87466       -0.00038
S         -0.72896       -1.86541       -0.00200
C          2.48322       -1.72064        0.03158
H          2.06405       -2.72025        0.05091
N          3.83682       -1.57179        0.02733
C          4.15548       -0.30730        0.00458
S          2.81912        0.80077       -0.01254
C          5.52548        0.17958       -0.00575
S          6.87294       -0.91991        0.01395
C          7.92545        0.44214       -0.01446
H          8.99986        0.32559       -0.01386
C          7.20141        1.59665       -0.03625
H          7.62184        2.59435       -0.05729
N          5.84118        1.44396       -0.03121
H         -1.64103        3.22156        0.02996
H         -3.17078        3.40091        0.89958
H         -3.15417        3.40914       -0.86680
H         -4.73345       -3.14889       -0.02291
H         -3.21676       -3.34264        0.86733
H         -3.20792       -3.33349       -0.89971
