35
COMP47_200002.log	Energy: -1912728.8436681
C          2.29635       -0.93000       -0.12697
C          1.03587       -0.21609       -0.09688
C          0.85149        1.14297       -0.10302
H          1.66587        1.85806       -0.12663
C         -0.52020        1.49007       -0.07225
Cl        -1.03884        3.14425       -0.07228
C         -1.39217        0.42507       -0.03986
S         -0.48786       -1.05901       -0.05225
C         -2.83782        0.47835       -0.00369
C         -3.64302       -0.59649        0.08826
C         -5.09465       -0.61379        0.12047
C         -6.06124        0.35623       -0.02695
Cl        -5.75250        2.03662       -0.32883
C         -7.39752       -0.12095        0.07403
H         -8.26525        0.51958       -0.01993
C         -7.44597       -1.46228        0.29880
H         -8.32365       -2.08203        0.41718
S         -5.87451       -2.14988        0.38918
C          3.58256       -0.45195       -0.12235
C          4.26573        0.86269       -0.07309
O          3.84081        1.99330       -0.03525
N          5.62981        0.52225       -0.05701
O          6.59741        1.46884       -0.17308
C          7.07018        1.86643        1.11675
C          5.92283       -0.85105       -0.13439
O          7.02353       -1.33809       -0.15280
C          4.57432       -1.47192       -0.15876
C          4.07752       -2.73104       -0.19268
H          4.60505       -3.67406       -0.22377
S          2.34964       -2.68081       -0.18582
H         -3.25355        1.47768       -0.05400
H         -3.18497       -1.58298        0.15496
H          7.83124        2.62034        0.91349
H          7.51626        1.01484        1.63909
H          6.25738        2.30359        1.70444
