62
COMP87_230003.log	Energy: -2268730.2272088
C          0.04489        0.53835       -0.13273
C          1.49818        0.69936       -0.27726
C          2.19941        1.76124       -0.80808
C          1.58594        2.92683       -1.35851
N          1.08794        3.87132       -1.80954
C          3.61587        1.55133       -0.80140
Cl         4.69033        2.77053       -1.38865
C          3.99803        0.34210       -0.27649
S          2.58347       -0.53720        0.23252
C          5.29349       -0.28432       -0.05872
C          6.44055        0.04478       -0.67836
C          7.74013       -0.57400       -0.45896
C          8.25990       -1.33597        0.55924
Cl         7.42433       -1.78383        2.00270
C          9.62473       -1.72167        0.35042
C         10.38834       -2.51484        1.26006
N         11.01883       -3.15909        1.98807
C         10.12502       -1.23974       -0.82900
H         11.12023       -1.38877       -1.22315
S          8.95902       -0.32943       -1.68088
C         -0.56107       -0.69196       -0.40990
C         -1.93205       -0.86000       -0.28265
C         -2.72894        0.20945        0.13296
C         -4.17995        0.40594        0.25246
C         -4.35675        1.84722        0.66399
O         -5.36929        2.40820        1.00050
N         -3.06614        2.41713        0.71422
C         -2.74709        3.73400        1.08805
O         -1.63908        4.07049        1.43048
O         -3.79447        4.53730        0.98947
C         -3.54813        5.89331        1.37169
C         -2.09899        1.44222        0.39315
C         -0.73258        1.62628        0.27947
C         -5.23783       -0.43963        0.07979
C         -5.07642       -1.94256        0.09170
O         -4.08336       -2.57820        0.34346
N         -6.35567       -2.49272       -0.13399
C         -6.67933       -3.85582       -0.19865
O         -7.81527       -4.26808       -0.18805
O         -5.59779       -4.61648       -0.29445
C         -5.85608       -6.02124       -0.33902
C         -7.30864       -1.45143       -0.25748
C         -8.66267       -1.56957       -0.52893
C         -9.39686       -0.39528       -0.67971
H        -10.46049       -0.46530       -0.88604
C         -8.78926        0.85210       -0.57467
C         -7.43240        0.95713       -0.29496
C         -6.67166       -0.20248       -0.11521
H          5.29164       -1.10007        0.65684
H          6.42908        0.82215       -1.43506
H          0.04205       -1.52680       -0.75339
H         -2.37416       -1.81986       -0.49618
H         -4.50359        6.39981        1.24636
H         -2.78556        6.33637        0.72766
H         -3.21851        5.94329        2.41168
H         -0.28682        2.58059        0.51930
H         -4.87432       -6.48808       -0.39888
H         -6.45737       -6.27226       -1.21578
H         -6.38118       -6.34244        0.56310
H         -9.12714       -2.54026       -0.61714
H         -9.37555        1.75594       -0.70371
H         -6.97470        1.92859       -0.19718
