34
COMP57_200300.log	Energy: -2146822.9378115
C         -1.67371       -0.20305        0.17528
C         -0.33321        0.34498        0.19452
C          0.00054        1.66942        0.33619
H         -0.71521        2.46938        0.48538
C          1.39611        1.88120        0.28652
Cl         2.08550        3.46252        0.45175
C          2.14235        0.73658        0.10908
S          1.08886       -0.63838       -0.00033
C          3.58476        0.63736        0.02372
C          4.26165       -0.51872       -0.10947
C          5.69842       -0.69893       -0.20814
C          6.77090        0.16559       -0.17822
Cl         6.66155        1.88691        0.00923
C          8.03954       -0.46231       -0.31338
H          8.97553        0.08162       -0.30839
C          7.92891       -1.81274       -0.44671
H          8.72526       -2.53411       -0.56502
S          6.29145       -2.32579       -0.40870
C         -2.12398       -1.50090        0.34474
C         -1.28527       -2.63403        0.58750
N         -0.59750       -3.54734        0.77834
N         -3.47887       -1.68922        0.28101
C         -4.08212       -0.56072        0.06522
S         -3.04503        0.82498       -0.09330
C         -5.52648       -0.43236       -0.04648
S         -6.56879       -1.81821        0.10531
C         -7.91018       -0.78298       -0.14659
H         -8.92685       -1.14961       -0.15525
C         -7.48307        0.50615       -0.32291
C         -8.36201        1.61406       -0.55584
N         -9.09500        2.49107       -0.74212
N         -6.12657        0.70033       -0.26505
H          4.10821        1.58468        0.07469
H          3.69612       -1.44936       -0.15119
