28
COMP52_210100.log	Energy: -2231556.5181792
C          1.34990       -0.28379       -0.01504
C         -0.04935        0.07976       -0.10419
C         -0.63075        1.31506       -0.26198
Cl         0.19751        2.82032       -0.40303
C         -2.04906        1.26149       -0.32054
F         -2.77963        2.35207       -0.49849
C         -2.56819        0.00714       -0.20102
S         -1.28659       -1.14834       -0.00338
C         -3.96761       -0.37389       -0.21527
S         -4.56159       -1.76363       -1.07839
C         -6.18244       -1.46667       -0.58078
H         -6.98522       -2.12357       -0.88273
C         -6.27204       -0.35157        0.19307
Cl        -7.72960        0.26909        0.87468
C         -5.00482        0.26524        0.40244
F         -4.86321        1.34911        1.15098
C          1.87513       -1.54380        0.15247
F          1.12121       -2.63109        0.25833
N          3.20735       -1.68794        0.21337
C          3.77134       -0.51389        0.09210
S          2.69192        0.82477       -0.10273
C          5.20841       -0.31268        0.11711
S          6.30839       -1.63908        0.31656
C          7.61318       -0.52059        0.22650
H          8.64772       -0.81882        0.30043
C          7.10755        0.73306        0.05691
F          7.84832        1.82383       -0.04971
N          5.76427        0.86343       -0.00613
