33
COMP27_140200.log	Energy: -2000110.8885680
C          2.69172        0.07009        0.08929
C          1.26754       -0.24252        0.26428
C          0.70996       -1.36983        0.83537
O          1.33271       -2.41207        1.41478
C         -0.71147       -1.33979        0.79645
F         -1.42411       -2.33651        1.32679
C         -1.26007       -0.25111        0.17935
S          0.01158        0.79524       -0.36658
C         -2.64431        0.10650       -0.06467
C         -3.70545       -0.63982        0.29859
C         -5.08970       -0.27960        0.05948
C         -5.64043        0.80776       -0.55849
F         -4.94268        1.82378       -1.10310
C         -7.06235        0.83453       -0.61083
O         -7.77118        1.83440       -1.18320
C         -7.60401       -0.26507       -0.01591
H         -8.65196       -0.50155        0.09152
S         -6.37955       -1.31614        0.59927
C          3.59390       -0.95682       -0.36501
N          3.26945       -2.23432       -0.57502
S          4.61972       -2.99562       -1.08018
N          5.66037       -1.75325       -1.05461
C          4.97680       -0.68707       -0.63707
C          5.50708        0.61380       -0.44957
H          6.54748        0.82109       -0.66446
C          4.66382        1.57237        0.02168
Cl         5.31063        3.16197        0.28140
C          3.26961        1.30797        0.30541
Cl         2.33688        2.60865        0.96729
H          2.09064       -2.65064        0.84965
H         -2.80516        1.05097       -0.57508
H         -3.54373       -1.58333        0.80978
H         -7.14881        2.48807       -1.52794
