42
COMP75_000021.log	Energy: -1230303.2891421
C         -0.92141        1.66700        0.12458
C          0.51846        1.40771       -0.05257
C          1.12069        0.34781        0.62033
C          2.47473        0.14253        0.40709
N          3.29601       -0.83722        0.92648
O          2.83487       -1.94437        1.58351
C          2.30494       -2.89785        0.65203
C          4.56569       -0.73131        0.39203
C          5.68117       -1.54034        0.59247
C          6.85014       -1.17436       -0.06000
H          7.74204       -1.77968        0.07151
C          6.90803       -0.03623       -0.88005
C          5.78786        0.75976       -1.07181
C          4.59420        0.41044       -0.43790
C          3.25476        0.96640       -0.43270
C          2.64151        2.04610       -1.06742
C          1.28456        2.25793       -0.87818
C         -2.01665        0.82783        0.06699
C         -2.01186       -0.61994       -0.27453
O         -1.00995       -1.27987       -0.49329
C         -3.36096       -1.24011       -0.33878
C         -3.57816       -2.55418       -0.63994
H         -2.82969       -3.29787       -0.87570
S         -5.25269       -2.93794       -0.60915
C         -5.68382       -1.32934       -0.18601
H         -6.71432       -1.03705       -0.03788
C         -4.58030       -0.53367       -0.07619
C         -4.59866        0.90401        0.26695
O         -5.62361        1.52284        0.49102
C         -3.25507        1.53141        0.30275
C         -3.07874        2.86193        0.53634
H         -3.85521        3.58834        0.73316
S         -1.42321        3.29252        0.48061
H          0.55173       -0.30412        1.27014
H          2.00785       -3.75199        1.26229
H          3.07457       -3.19787       -0.06703
H          1.43468       -2.48781        0.12920
H          5.62964       -2.41046        1.23780
H          7.84201        0.22063       -1.36968
H          5.83547        1.63757       -1.70990
H          3.21225        2.70217       -1.71760
H          0.79390        3.07532       -1.39795
