36
COMP61_000001.log	Energy: -1097608.5070911
C          2.47966       -0.52785        0.00093
C          1.04026       -0.52141        0.00123
C          0.27246        0.60433        0.00213
H          0.72131        1.59355        0.00281
C         -1.13463        0.32978        0.00098
C         -2.19210        1.25215        0.00042
C         -1.98527        2.74152        0.00114
C         -3.46962        0.70321       -0.00025
S         -4.95617        1.63190       -0.00073
C         -5.89919        0.17062       -0.00141
H         -6.97914        0.23672       -0.00192
C         -5.15412       -0.95578       -0.00130
H         -5.59154       -1.94656       -0.00173
C         -3.73389       -0.69386       -0.00060
C         -2.67606       -1.61528       -0.00022
C         -2.87280       -3.10661       -0.00038
C         -1.39863       -1.06754        0.00051
S          0.08614       -1.99862        0.00130
C          3.34933        0.53365        0.00092
C          3.39679        1.98712        0.00007
O          2.53508        2.85305        0.00062
N          4.78636        2.24632       -0.00144
H          5.15313        3.18515       -0.00220
C          5.54142        1.08630       -0.00200
H          6.62168        1.12878       -0.00374
C          4.69216        0.02875       -0.00016
C          4.63499       -1.43747       -0.00042
O          5.48534       -2.29950       -0.00156
N          3.24024       -1.68894        0.00044
H          2.87500       -2.62944       -0.00027
H         -0.92881        3.01522       -0.00154
H         -2.44724        3.19519        0.88598
H         -2.45211        3.19668       -0.88036
H         -3.92814       -3.38461        0.00043
H         -2.40814       -3.56167        0.88266
H         -2.40953       -3.56130       -0.88435
