60
COMP97_330003.log	Energy: -1852753.7952894
C          1.10607       -0.01934        0.12257
C         -0.33876        0.00276        0.44486
C         -0.91274        0.41143        1.62055
C         -0.15077        0.96700        2.69181
N          0.49666        1.41656        3.54108
C         -2.33705        0.25468        1.62973
C         -3.13959        0.61621        2.75030
N         -3.80531        0.90639        3.65453
C         -2.82627       -0.28403        0.45392
S         -1.52285       -0.58995       -0.64711
C         -4.17080       -0.62304        0.01968
C         -5.30106       -0.40476        0.71864
C         -6.64337       -0.75282        0.28178
C         -7.11314       -1.39612       -0.84980
C         -6.28908       -1.88939       -1.90261
N         -5.60687       -2.28570       -2.75263
C         -8.54347       -1.52799       -0.86307
C         -9.27772       -2.15474       -1.91648
N         -9.87854       -2.66194       -2.76719
C         -9.12860       -0.98830        0.24878
H        -10.18438       -0.95744        0.47838
S         -7.96960       -0.32225        1.31355
C          1.76432       -1.26703        0.20910
C          3.11378       -1.37123       -0.01644
C          3.76594       -2.70405        0.08610
O          3.16815       -3.72200        0.35683
N          5.13988       -2.72087       -0.15774
C          5.78711       -4.02398       -0.12812
O          5.90264       -4.71262       -1.09766
O          6.19322       -4.28039        1.10023
C          6.84638       -5.54620        1.26504
C          5.96081       -1.62569       -0.44591
O          7.15230       -1.77295       -0.60412
C          5.27385       -0.31093       -0.54093
C          6.00691        0.81534       -0.83245
H          7.07593        0.72104       -0.98936
C          5.36897        2.06656       -0.92156
C          4.01138        2.17247       -0.72450
C          3.37534        3.50905       -0.82129
O          3.98442        4.53452       -1.02943
N          1.98869        3.52185       -0.65892
C          1.32698        4.80707       -0.83960
O          1.00463        5.22774       -1.91029
O          1.16568        5.37623        0.33841
C          0.50045        6.64595        0.30945
C          1.15368        2.43982       -0.38537
O         -0.04537        2.60602       -0.32030
C          1.82813        1.11875       -0.21058
C          3.22907        1.02828       -0.42373
C          3.87640       -0.22407       -0.32786
H         -4.22690       -1.08868       -0.95913
H         -5.24798        0.07020        1.69327
H          1.20474       -2.16031        0.46817
H          7.08920       -5.60969        2.32408
H          7.75164       -5.57998        0.65538
H          6.17294       -6.35384        0.97156
H          5.93365        2.96527       -1.14528
H          0.42514        6.95470        1.35032
H         -0.48993        6.53669       -0.13699
H          1.08928        7.36100       -0.26850
