42
COMP93_000001.log	Energy: -788707.2048891
C         -0.91840       -0.27325        0.05922
C         -2.40884       -0.34823        0.13033
C         -3.11034       -0.71247       -1.01804
C         -4.49308       -0.88574       -1.00292
C         -5.24839       -1.26890       -2.25063
C         -5.15845       -0.70048        0.20868
H         -6.23633       -0.83613        0.25617
C         -4.46086       -0.35090        1.35837
C         -3.07929       -0.16639        1.34658
C         -2.34041        0.23662        2.59615
C         -0.23473       -1.51470        0.08778
C          1.13304       -1.58924        0.04133
C          1.79745       -2.91981        0.08600
O          1.19968       -3.97240        0.15907
N          3.18576       -2.88626        0.03706
H          3.65063       -3.78641        0.06889
C          4.01933       -1.77713       -0.04605
O          5.22519       -1.90428       -0.07797
C          3.32451       -0.46237       -0.09351
C          4.06755        0.69192       -0.18473
H          5.14924        0.62003       -0.22034
C          3.41979        1.93728       -0.23493
C          2.04553        2.01258       -0.18837
C          1.40167        3.34873       -0.25233
O          2.01202        4.39395       -0.34283
N          0.01859        3.32597       -0.19969
H         -0.44155        4.22831       -0.23764
C         -0.83805        2.23348       -0.08316
O         -2.03453        2.41906       -0.02949
C         -0.17528        0.89600       -0.03054
C          1.24960        0.84110       -0.08821
C          1.90926       -0.40849       -0.04510
H         -2.56382       -0.85816       -1.94723
H         -4.57626       -1.37635       -3.10695
H         -5.99770       -0.51169       -2.50618
H         -5.77602       -2.21984       -2.11695
H         -5.00159       -0.21656        2.29180
H         -2.99546        0.19129        3.47052
H         -1.97014        1.26442        2.50967
H         -1.47745       -0.41089        2.78770
H         -0.80821       -2.43373        0.15509
H          3.98572        2.85951       -0.31190
