33
COMP42_040002.log	Energy: -1381762.8954034
C          1.23267        0.88399       -0.03941
C         -0.06951        0.25766       -0.03984
C         -0.33279       -1.08892       -0.10845
H          0.44795       -1.84047       -0.16897
C         -1.71789       -1.36587       -0.09106
O         -2.26323       -2.60883       -0.14633
C         -2.52143       -0.24616       -0.01106
S         -1.53466        1.18745        0.04604
C         -3.96603       -0.19628        0.02234
S         -4.96553       -1.62815       -0.02605
C         -6.40550       -0.69471        0.04690
H         -7.36885       -1.18551        0.04213
C         -6.15835        0.64357        0.10612
H         -6.92895        1.40528        0.15696
C         -4.76361        0.92475        0.09198
O         -4.21556        2.16746        0.14034
C          2.48709        0.32445       -0.09353
C          3.08231       -1.02781       -0.16403
O          2.59081       -2.13336       -0.19902
N          4.46705       -0.77814       -0.16077
O          5.36946       -1.77359       -0.36401
C          5.82887       -2.29881        0.88364
C          4.84849        0.57536       -0.13180
O          5.97970        0.98872       -0.13510
C          3.54392        1.27946       -0.07411
C          3.13227        2.56659       -0.00527
H          3.72146        3.47248        0.02108
S          1.40348        2.62902        0.03348
H         -1.55936       -3.26381       -0.21856
H         -4.91503        2.82827        0.19132
H          6.54249       -3.07732        0.61199
H          4.99652       -2.73270        1.44601
H          6.32922       -1.51938        1.46628
