37
COMP55_000000.log	Energy: -1061851.1175618
C          1.08440        0.08602       -0.26547
C         -0.35138       -0.22227       -0.22721
C         -1.25932        0.81066        0.01263
C         -2.61864        0.50868        0.02349
N         -3.70386        1.34069        0.23806
C         -3.68271        2.75927        0.49387
C         -4.86022        0.58387        0.17001
C         -6.18457        0.99494        0.32296
C         -7.17302        0.02636        0.21006
H         -8.21340        0.31517        0.32636
C         -6.85736       -1.31563       -0.04843
C         -5.53709       -1.71593       -0.20028
C         -4.52530       -0.76160       -0.09097
C         -3.08327       -0.81028       -0.18501
C         -2.16369       -1.83284       -0.41413
C         -0.81092       -1.53795       -0.43783
C          1.69523        1.22374       -0.72405
H          1.17092        2.06263       -1.16642
N          3.05743        1.26240       -0.63913
C          3.51215        0.15802       -0.11756
S          2.29936       -1.00943        0.31410
C          4.92429       -0.11176        0.10268
S          6.14014        1.05866       -0.32330
C          7.33503       -0.04306        0.24634
H          8.38808        0.19764        0.21448
C          6.74434       -1.18225        0.70389
H          7.26936       -2.03493        1.11612
N          5.37791       -1.21790        0.62081
H         -0.89494        1.81362        0.21002
H         -2.65222        3.11510        0.50967
H         -4.14045        2.98409        1.46364
H         -4.22422        3.30322       -0.28836
H         -6.43657        2.03181        0.52278
H         -7.65516       -2.04712       -0.12905
H         -5.29511       -2.75598       -0.39945
H         -2.50358       -2.85098       -0.57919
H         -0.09279       -2.32650       -0.64152
