35
COMP25_000310.log	Energy: -903043.1825534
C         -1.60489        0.06114        0.10488
C         -0.14100       -0.12589        0.19796
C          0.70586        0.64907       -0.59322
C          2.07626        0.45481       -0.46316
N          3.11388        1.07992       -1.12337
H          3.01116        1.82795       -1.78844
C          4.31667        0.57466       -0.66757
C          5.61830        0.91105       -1.03906
C          6.65685        0.23530       -0.41581
H          7.68134        0.47554       -0.68370
C          6.41443       -0.75140        0.55334
C          5.11798       -1.08023        0.91763
C          4.05399       -0.41399        0.30517
C          2.61489       -0.49145        0.43655
C          1.75086       -1.26171        1.21584
C          0.38420       -1.08269        1.09010
C         -2.47581       -1.06506       -0.09556
N         -2.08342       -2.33464       -0.22299
S         -3.42793       -3.21403       -0.44369
N         -4.55652       -2.04644       -0.40455
C         -3.89981       -0.90254       -0.20189
C         -4.49117        0.38570       -0.10928
H         -5.56432        0.50628       -0.19285
C         -3.65848        1.45196        0.08037
C         -4.23068        2.76621        0.17831
N         -4.71870        3.81411        0.25231
C         -2.21987        1.29388        0.19305
C         -1.44665        2.48130        0.42918
N         -0.85316        3.45806        0.61992
H          0.30790        1.37559       -1.29465
H          5.81287        1.67253       -1.78815
H          7.25298       -1.25768        1.02058
H          4.93056       -1.84182        1.66915
H          2.14224       -1.99356        1.91597
H         -0.29389       -1.67803        1.69108
