27
COMP22_200200.log	Energy: -2309466.6880659
C          1.83791        0.06730       -0.03161
C          0.43521       -0.13064        0.36991
C         -0.03368       -0.63865        1.54688
Cl         1.00063       -1.11665        2.85100
C         -1.44994       -0.72561        1.62359
H         -1.98195       -1.07529        2.49990
C         -2.05466       -0.28451        0.47888
S         -0.88246        0.22494       -0.69577
C         -3.47793       -0.21318        0.17814
S         -4.58518       -1.37873        0.83776
C         -5.92955       -0.62802        0.06870
H         -6.93136       -1.01350        0.19151
C         -5.52972        0.44640       -0.66570
Cl        -6.61652        1.44107       -1.58143
C         -4.13001        0.69603       -0.60979
H         -3.64695        1.52676       -1.10990
C          2.57060       -1.03386       -0.57961
N          2.09017       -2.26010       -0.78230
S          3.31340       -3.12698       -1.41052
N          4.48575       -2.00015       -1.45355
C          3.94340       -0.88367       -0.96505
C          4.59548        0.36928       -0.81275
H          5.63174        0.48615       -1.10499
C          3.88405        1.40817       -0.29267
Cl         4.67396        2.94199       -0.10484
C          2.50091        1.26154        0.10358
Cl         1.67090        2.62340        0.77620
