44
COMP77_210002.log	Energy: -2420585.5724862
C         -1.19487       -1.48544        0.65632
C          0.06278       -0.76156        0.75835
C          0.32306        0.36787        1.47641
F         -0.57122        0.99319        2.22109
C          1.66713        0.81572        1.38443
Cl         2.21130        2.22531        2.21682
C          2.45535        0.01441        0.59489
S          1.50936       -1.29617       -0.04829
C          3.86282        0.19991        0.31080
C          4.60909       -0.62416       -0.44704
C          6.01990       -0.48906       -0.76281
C          6.97870        0.43527       -0.41958
Cl         6.75992        1.82854        0.57496
C          8.25651        0.14319       -0.97871
F          9.30752        0.92429       -0.75624
C          8.28716       -0.98106       -1.73754
H          9.13416       -1.40227       -2.25760
S          6.73082       -1.71206       -1.78252
C         -2.45263       -1.02267        0.34048
C         -2.78792        0.36731       -0.08274
O         -1.94806        1.24260       -0.19648
C         -4.21884        0.58040       -0.36952
C         -4.75143        1.78421       -0.74069
O         -4.08095        2.91935       -0.90225
C         -4.79010        4.08314       -1.28881
S         -6.49316        1.68739       -0.98765
C         -6.47736       -0.02518       -0.57828
O         -7.58235       -0.76310       -0.58754
C         -8.81954       -0.13149       -0.86562
C         -5.21934       -0.46631       -0.27608
C         -4.88476       -1.84891        0.09596
O         -5.69258       -2.75976        0.16431
C         -3.44220       -2.05998        0.38999
C         -2.92503       -3.27738        0.72269
H         -3.47082       -4.20674        0.81053
S         -1.23884       -3.18972        1.00403
H          4.30197        1.08070        0.76444
H          4.13631       -1.50150       -0.88759
H         -4.04384        4.87348       -1.35697
H         -5.54276        4.35302       -0.53811
H         -5.26862        3.94531       -2.26617
H         -9.57194       -0.91712       -0.81221
H         -8.81986        0.30767       -1.87085
H         -9.04206        0.64148       -0.12013
