32
COMP51_200310.log	Energy: -2146092.7942868
C          1.21663        0.59412        0.21223
C         -0.22210        0.36966        0.13653
C         -0.93871       -0.68784        0.60511
Cl        -0.25523       -2.02331        1.46537
C         -2.35378       -0.60169        0.35432
C         -3.35601       -1.50528        0.70626
H         -3.11529       -2.41858        1.24029
C         -4.65631       -1.19026        0.34715
S         -6.08613       -2.14975        0.66441
C         -7.09291       -0.97107       -0.12525
H         -8.16043       -1.12668       -0.19702
C         -6.39476        0.08237       -0.59922
Cl        -7.11496        1.41863       -1.43323
C         -4.97460        0.00344       -0.35065
C         -3.97402        0.90741       -0.69868
H         -4.21534        1.82323       -1.22817
C         -2.67150        0.59049       -0.34115
S         -1.24793        1.54801       -0.66472
C          1.88763        1.71685        0.65235
C          1.25060        2.87831        1.19918
N          0.73040        3.81304        1.64320
N          3.25225        1.67632        0.57654
C          3.63854        0.53798        0.07967
S          2.37203       -0.57024       -0.33691
C          5.03877        0.18892       -0.11272
S          6.31107        1.29272        0.32402
C          7.44681        0.12816       -0.21123
H          8.51278        0.30091       -0.16742
C          6.79724       -0.98682       -0.67039
C          7.46344       -2.14554       -1.18786
N          8.02633       -3.06948       -1.60086
N          5.42774       -0.94650       -0.61270
