33
COMP39_000000.log	Energy: -1160369.0612929
C          2.21808       -0.02729        0.01784
C          0.75171        0.00816        0.05204
C         -0.04872        1.10007        0.31231
C         -1.42290        0.79739        0.21104
C         -1.65495       -0.51421       -0.13182
S         -0.21042       -1.41368       -0.31537
C         -3.08288       -0.73538       -0.19191
C         -3.72596        0.44193        0.10767
C         -2.72916        1.55376        0.39730
C         -2.87604        2.08241        1.83258
C         -2.86124        2.70017       -0.61932
C         -5.13988        0.32105        0.06031
C         -5.52691       -0.94705       -0.27336
H         -6.53270       -1.32946       -0.38129
S         -4.18061       -2.01148       -0.53845
C          2.95237       -1.18734        0.29411
F          2.31819       -2.32541        0.59576
C          4.33946       -1.20751        0.26154
F          4.97196       -2.34939        0.53630
C          5.06355       -0.06778       -0.04050
H          6.14594       -0.08239       -0.06247
C          4.35907        1.09088       -0.31705
F          5.01331        2.21351       -0.62154
C          2.97155        1.11305       -0.29566
F          2.36743        2.26805       -0.59358
H          0.35057        2.07321        0.56400
H         -2.78330        1.27062        2.55989
H         -3.85430        2.55702        1.96688
H         -2.10430        2.82982        2.04730
H         -2.75758        2.32624       -1.64194
H         -2.08751        3.45632       -0.44664
H         -3.83878        3.18549       -0.52362
H         -5.84241        1.12108        0.26372
