40
COMP67_420000.log	Energy: -1769470.7681069
C          3.16259       -0.30155        0.30207
C          1.79831       -0.77167        0.11870
C          1.33148       -1.94146       -0.42393
Cl         2.31249       -3.19969       -1.10316
C         -0.08836       -2.02276       -0.48417
O         -0.78675       -3.06165       -0.98548
C         -0.70360       -0.90135        0.02279
S          0.47553        0.25492        0.55403
C         -2.13565       -0.70484        0.10873
C         -2.75458        0.38349        0.60799
C         -4.19523        0.57251        0.61866
C         -5.11398        0.14253       -0.31101
O         -4.86343       -0.53547       -1.44932
C         -6.45066        0.52633        0.02151
Cl        -7.80392        0.11622       -0.97220
C         -6.53352        1.24279        1.17410
H         -7.42576        1.64232        1.63378
S         -4.98501        1.47397        1.88473
C          3.69899        0.89608       -0.07692
C          3.40802        2.11777       -0.82113
O          2.40102        2.55941       -1.33665
N          4.66656        2.79219       -0.82761
C          4.84934        4.08443       -1.44926
C          5.62899        2.06252       -0.16624
H          6.64377        2.43330       -0.09716
C          5.07907        0.91440        0.30743
C          5.38292       -0.33688        0.99074
O          6.38130       -0.77039        1.52634
N          4.14470       -1.04565        0.94362
C          3.97803       -2.28629        1.67153
H         -0.17207       -3.73565       -1.30781
H         -2.72157       -1.55470       -0.23596
H         -2.15848        1.19462        1.02650
H         -3.91463       -0.48605       -1.63674
H          3.89337        4.35836       -1.89895
H          5.61408        4.03792       -2.23042
H          5.12891        4.84147       -0.71014
H          4.66493       -2.26904        2.51983
H          4.21476       -3.15182        1.04697
H          2.94979       -2.37122        2.03011
