58
COMP82_310003.log	Energy: -1767901.2465059
C         -1.11723        0.49472        0.21214
C         -2.57830        0.57761        0.33093
C         -3.34818        1.61324        0.81837
C         -2.84895        2.83254        1.36289
N         -2.45368        3.82552        1.81119
C         -4.73635        1.30111        0.77719
F         -5.65794        2.15899        1.21137
C         -5.04246        0.06860        0.27745
S         -3.56937       -0.74398       -0.17514
C         -6.35378       -0.52573        0.11537
S         -7.82802        0.29322        0.55738
C         -8.79564       -1.03192        0.07072
H         -9.87172       -0.99062        0.16227
C         -8.04810       -2.07179       -0.41457
C         -8.57861       -3.30599       -0.89392
N         -9.01076       -4.30823       -1.28256
C         -6.65702       -1.76244       -0.38041
F         -5.73523       -2.62521       -0.80317
C         -0.45316       -0.70619        0.48703
C          0.92521       -0.80487        0.37026
C          1.67083        0.30635       -0.02993
C          3.11108        0.57097       -0.13936
C          3.22560        2.03191       -0.49986
O          4.21636        2.65456       -0.78877
N          1.90807        2.53776       -0.56571
C          1.52870        3.84309       -0.92307
O          0.40744        4.13030       -1.26775
O          2.53547        4.69463       -0.80918
C          2.22546        6.04281       -1.17242
C          0.98489        1.51147       -0.27589
C         -0.39033        1.62596       -0.17630
C          4.20193       -0.23994       -0.01271
C          4.09598       -1.74584       -0.10371
O          3.12209       -2.40429       -0.37038
N          5.39978       -2.25700        0.06491
C          5.77873       -3.60716        0.03037
O          6.92903       -3.97007       -0.04252
O          4.73139       -4.41556        0.11019
C          5.04275       -5.80892        0.04566
C          6.31428       -1.18842        0.23439
C          7.67592       -1.26898        0.47967
C          8.36618       -0.07752        0.69134
H          9.43480       -0.11736        0.87923
C          7.70920        1.14903        0.67111
C          6.34484        1.21695        0.41706
C          5.62757        0.04082        0.17674
H         -1.01603       -1.57320        0.81884
H          1.41144       -1.74405        0.58029
H          3.15788        6.59006       -1.04490
H          1.44739        6.44229       -0.51848
H          1.88811        6.09150       -2.20994
H         -0.87959        2.56026       -0.41029
H          4.08209       -6.31654        0.11463
H          5.69280       -6.09523        0.87537
H          5.53706       -6.04567       -0.89898
H          8.17863       -2.22438        0.50174
H          8.26209        2.06584        0.84739
H          5.84745        2.17336        0.38660
