34
COMP42_340000.log	Energy: -1450344.3228148
C         -2.12780        0.85017       -0.07453
C         -0.68809        1.02972       -0.01733
C          0.02565        2.21825        0.06060
C         -0.48582        3.54372        0.13820
N         -0.77998        4.66537        0.20495
C          1.43690        2.02430        0.07276
O          2.35178        3.01353        0.15025
C          1.80157        0.70145        0.00331
S          0.39345       -0.31801       -0.06696
C          3.14643        0.16572        0.00386
S          4.56907        1.17229        0.12924
C          5.61563       -0.17326        0.06165
H          6.68787       -0.04561        0.10769
C          4.92866       -1.35359       -0.05330
C          5.50146       -2.65531       -0.13751
N          5.88504       -3.74794       -0.21103
C          3.51052       -1.15661       -0.08669
O          2.59462       -2.13894       -0.19638
C         -2.88840       -0.29282       -0.01005
C         -2.68174       -1.75559        0.15095
O         -1.65694       -2.39109        0.25811
N         -3.96778       -2.31015        0.15118
C         -4.22609       -3.72776        0.28515
C         -4.99017       -1.36576       -0.00211
O         -6.16974       -1.62110       -0.03418
C         -4.28322       -0.06432       -0.10621
C         -4.62308        1.23910       -0.25116
H         -5.60422        1.68406       -0.34359
S         -3.20767        2.22223       -0.27165
H          1.91494        3.87666        0.18888
H          3.02452       -3.00546       -0.22396
H         -3.26324       -4.23084        0.37841
H         -4.75747       -4.09922       -0.59438
H         -4.83319       -3.91843        1.17346
