44
COMP72_110003.log	Energy: -2061966.1165732
C         -0.42659       -1.60498        0.50870
C         -1.66722       -0.85115        0.55987
C         -1.93208        0.27846        1.27613
F         -1.07493        0.88746        2.07627
C         -3.25622        0.75155        1.10546
F         -3.69683        1.84435        1.72746
C         -4.02364       -0.01363        0.27262
S         -3.07917       -1.34697       -0.33146
C         -5.40461        0.19928       -0.10523
S         -6.34524        1.55194        0.46741
C         -7.73990        1.05221       -0.41657
H         -8.65969        1.61650       -0.37865
C         -7.49674       -0.08739       -1.11007
F         -8.37152       -0.72111       -1.88499
C         -6.17225       -0.57056       -0.93346
F         -5.73905       -1.67895       -1.53523
C          0.86585       -1.15809        0.34039
C          1.27536        0.23768        0.05138
O          0.48994        1.13119       -0.19083
C          2.75282        0.44767       -0.01472
C          3.35726        1.67364       -0.14989
C          2.76525        3.03546        0.01379
O          2.01806        3.35542        0.89963
O          3.24727        3.86679       -0.92000
C          2.79810        5.22056       -0.81571
S          5.04975        1.51639       -0.40945
C          4.97319       -0.20096       -0.32154
C          6.20413       -0.99481       -0.60707
O          6.24246       -1.99388       -1.27454
O          7.27621       -0.39161       -0.07160
C          8.52806       -1.02697       -0.34329
C          3.69052       -0.63450       -0.08363
C          3.28366       -2.03660        0.21751
O          4.07374       -2.94442        0.37643
C          1.82195       -2.22617        0.37817
C          1.24922       -3.45025        0.56304
H          1.76082       -4.40177        0.61097
S         -0.45169       -3.33208        0.71460
H          3.28732        5.75204       -1.63069
H          3.08376        5.64449        0.14986
H          1.71209        5.26741       -0.92153
H          9.28272       -0.39226        0.11884
H          8.69249       -1.10368       -1.42057
H          8.54503       -2.02751        0.09444
