40
COMP84_200001.log	Energy: -1769999.7603024
C          1.10185        0.08253        0.04683
C          2.57329        0.07596        0.03850
C          3.45600        1.02593        0.47853
Cl         3.02562        2.52212        1.23747
C          4.81482        0.63958        0.30315
S          6.35011        1.35842        0.65081
C          7.17018       -0.03234        0.00745
H          8.25023       -0.07252       -0.00321
C          6.31156       -0.98679       -0.44181
Cl         6.79904       -2.49378       -1.13758
C          4.94900       -0.60589       -0.27304
S          3.41414       -1.31970       -0.61356
C          0.39302       -1.05280        0.45343
C         -0.99864       -1.08120        0.45969
C         -1.71888        0.04491        0.05998
C         -3.15091        0.36214       -0.12323
C         -3.16491        1.77046       -0.70412
O         -4.09679        2.48725       -1.00860
N         -1.85092        2.16040       -0.79174
H         -1.59140        3.07380       -1.12929
C         -0.98003        1.16795       -0.36929
C          0.39941        1.21460       -0.38590
C         -4.28571       -0.33764        0.16215
C         -4.28478       -1.61376        0.99891
O         -3.36422       -2.20880        1.52290
N         -5.59739       -1.98982        1.12151
H         -5.86605       -2.80870        1.64354
C         -6.45337       -1.13902        0.43534
C         -7.82453       -1.26312        0.30587
C         -8.48904       -0.31060       -0.46483
H         -9.56582       -0.38028       -0.58616
C         -7.78341        0.71700       -1.08350
C         -6.40134        0.83039       -0.93943
C         -5.70827       -0.09915       -0.16006
H          0.93584       -1.92752        0.79770
H         -1.51735       -1.96472        0.79648
H          0.92351        2.09276       -0.74621
H         -8.35914       -2.07862        0.78270
H         -8.31253        1.44774       -1.68644
H         -5.87012        1.64037       -1.41376
