53
COMP76_000020.log	Energy: -1341445.2927996
C         -0.73942        1.84075       -0.08772
C          0.66690        1.47689       -0.33959
C          1.24883        0.39064        0.33307
C          2.57243        0.08553        0.09816
C          3.41732       -1.05192        0.69074
O          3.36043       -1.11053        2.09752
C          3.74651        0.06445        2.77597
O          3.08499       -2.31704        0.21964
C          1.76654       -2.76529        0.48918
C          4.79775       -0.73012        0.12811
C          5.98394       -1.39951        0.36329
C          7.13905       -0.94630       -0.27708
H          8.08496       -1.45185       -0.10725
C          7.08897        0.15109       -1.13686
C          5.88815        0.82072       -1.37224
C          4.74182        0.37151       -0.72895
C          3.35641        0.87746       -0.75265
C          2.79603        1.95992       -1.41398
C          1.44781        2.24798       -1.20727
C         -1.89017        1.08053       -0.06921
C         -2.00163       -0.36147       -0.41181
O         -1.04676       -1.04797       -0.74542
C         -3.36937       -0.91919       -0.33155
C         -3.66818       -2.23462       -0.58342
C         -2.75809       -3.35612       -0.97656
S         -5.36594       -2.50106       -0.38150
C         -5.69051       -0.85563        0.03971
C         -7.07900       -0.39271        0.35148
C         -4.52452       -0.13473        0.02471
C         -4.43039        1.30325        0.33089
O         -5.39290        1.99646        0.62386
C         -3.05702        1.85899        0.25299
C         -2.78044        3.17564        0.46915
H         -3.49177        3.95012        0.72080
S         -1.10708        3.49540        0.29692
H          0.65729       -0.18919        1.03173
H          3.63803       -0.14745        3.84118
H          3.10788        0.91801        2.51310
H          4.79169        0.32623        2.56485
H          1.76232       -3.83079        0.25077
H          1.03018       -2.25243       -0.13980
H          1.51146       -2.63278        1.54596
H          6.00706       -2.25501        1.03122
H          7.99639        0.48938       -1.62830
H          5.85726        1.67419       -2.04379
H          3.38951        2.58085       -2.07847
H          0.99335        3.08275       -1.73364
H         -2.24828       -3.12173       -1.91487
H         -3.30769       -4.29387       -1.09408
H         -1.97790       -3.49451       -0.22263
H         -7.79796       -1.21421        0.29440
H         -7.38182        0.39303       -0.34641
H         -7.11806        0.04593        1.35224
