48
COMP94_100003.log	Energy: -1648700.3943037
C         -0.37059       -0.52144       -0.08977
C         -1.64251       -1.25479       -0.05936
C         -2.70140       -1.04533        0.77381
F         -2.75683       -0.06167        1.66369
C         -3.74672       -1.98819        0.61453
S         -5.30061       -2.24658        1.32890
C         -5.55951       -3.62983        0.30484
H         -6.47460       -4.20040        0.36735
C         -4.51008       -3.86092       -0.52516
F         -4.44958       -4.85366       -1.40941
C         -3.45291       -2.92357       -0.35570
S         -1.90604       -2.66159       -1.07689
C          0.81626       -1.29625       -0.00522
C          2.05312       -0.71384        0.06049
C          3.25827       -1.57935        0.14950
O          3.22092       -2.79017        0.12758
N          4.47544       -0.90460        0.26571
C          5.66421       -1.73054        0.39769
O          6.10098       -2.08240        1.45289
O          6.14058       -2.00128       -0.80339
C          7.32003       -2.81460       -0.81372
C          4.67693        0.47935        0.26939
O          5.79621        0.93763        0.34192
C          3.44905        1.31106        0.17975
C          3.56265        2.68237        0.20051
H          4.54626        3.13028        0.28980
C          2.40875        3.47814        0.10954
C          1.16618        2.89682       -0.01285
C         -0.01978        3.77985       -0.11480
O          0.02457        4.98780       -0.02671
N         -1.22560        3.12013       -0.33899
C         -2.38335        3.95512       -0.61215
O         -2.59410        4.45265       -1.67815
O         -3.11481        4.05528        0.48268
C         -4.31891        4.81567        0.33241
C         -1.44603        1.73924       -0.42139
O         -2.54735        1.34369       -0.73201
C         -0.26419        0.86764       -0.14859
C          1.01461        1.48653       -0.03410
C          2.18059        0.69425        0.06919
H          0.75013       -2.37906        0.03461
H          7.55938       -2.96081       -1.86543
H          7.12069       -3.77019       -0.32458
H          8.13325       -2.29958       -0.29794
H          2.47489        4.56057        0.13102
H         -4.80875        4.77445        1.30360
H         -4.94907        4.36833       -0.43911
H         -4.08100        5.84638        0.06129
