37
COMP59_000120.log	Energy: -1697861.5857895
C         -1.17145       -0.67448        0.04191
C          0.26469       -0.50285        0.02527
C          0.96570        0.68416        0.05772
C          2.35804        0.48118       -0.02032
C          2.70336       -0.84492       -0.07961
S          1.34274       -1.88299       -0.07166
C          4.15094       -0.96586       -0.06635
C          4.71064        0.28469       -0.00999
C          3.61526        1.35378        0.02830
O          3.82196        2.17396       -1.08825
C          2.78587        3.10010       -1.35486
O          3.53518        2.09597        1.21341
C          4.70943        2.80715        1.55748
C          6.12609        0.25991       -0.07785
C          6.60157       -1.02024       -0.15818
H          7.63179       -1.34489       -0.20654
S          5.33247       -2.20337       -0.17770
C         -1.91744       -1.82450        0.11523
F         -1.37494       -3.03521        0.17979
N         -3.25868       -1.72329        0.11595
C         -3.60083       -0.46511        0.04203
S         -2.28212        0.66069       -0.03810
C         -4.97673       -0.00699        0.02335
S         -6.30289       -1.12356        0.09686
C         -7.38408        0.21467        0.01979
H         -8.45726        0.10186        0.03154
C         -6.65674        1.36358       -0.05332
F         -7.18656        2.57451       -0.12476
N         -5.30936        1.25448       -0.05247
H          0.48819        1.65322        0.14760
H          3.18253        3.80252       -2.08997
H          2.49384        3.64587       -0.45038
H          1.90665        2.59872       -1.77897
H          5.09919        3.37282        0.70353
H          5.48582        2.12779        1.93113
H          4.42697        3.49906        2.35268
H          6.76578        1.13377       -0.07560
