42
COMP67_130002.log	Energy: -1432828.1831543
C          2.82987       -0.46459        0.11994
C          1.42886       -0.79718       -0.02546
C          0.81249       -1.97155       -0.42642
C          1.44575       -3.15994       -0.88978
N          1.90062       -4.13750       -1.31442
C         -0.59837       -1.84108       -0.44068
F         -1.37626       -2.85633       -0.81160
C         -1.07825       -0.61266       -0.06109
S          0.25700        0.42224        0.31144
C         -2.43831       -0.11883        0.04688
C         -3.53970       -0.86301       -0.16959
C         -4.90231       -0.37451       -0.06537
C         -5.38861        0.86018        0.27318
F         -4.61904        1.89879        0.59046
C         -6.80965        0.96957        0.26566
C         -7.51786        2.16516        0.58872
N         -8.09378        3.13543        0.85177
C         -7.40053       -0.21626       -0.08818
H         -8.45907       -0.41519       -0.17559
S         -6.24285       -1.43353       -0.40283
C          3.43613        0.75304       -0.04732
C          3.19955        2.08945       -0.58988
O          2.21764        2.68504       -0.97861
N          4.50865        2.65239       -0.52321
O          4.80942        3.89453       -0.99320
C          4.38103        4.90375       -0.07155
C          5.45516        1.78964       -0.02897
H          6.48828        2.09932        0.04287
C          4.82995        0.62217        0.27718
C          5.07757       -0.73063        0.74584
O          6.03382       -1.28541        1.23249
N          3.81053       -1.37378        0.49806
O          3.45795       -2.50454        1.19497
C          4.21805       -3.64529        0.76266
H         -2.54207        0.92641        0.31913
H         -3.43257       -1.90782       -0.44234
H          4.67993        5.84545       -0.53271
H          4.88243        4.77989        0.89467
H          3.29562        4.87126        0.05008
H          3.69520       -4.49842        1.19528
H          5.23806       -3.57679        1.14198
H          4.20766       -3.72313       -0.32625
