31
COMP22_230400.log	Energy: -1942781.3719744
C         -2.32396       -0.35542       -0.41196
C         -0.95102        0.16495       -0.40646
C         -0.54329        1.46925       -0.40366
Cl        -1.61340        2.81558       -0.50207
C          0.87545        1.62594       -0.33133
C          1.52036        2.89808       -0.29430
N          2.04326        3.93240       -0.27023
C          1.53646        0.41341       -0.28173
S          0.41409       -0.89426       -0.32750
C          2.97402        0.17428       -0.24402
S          4.05862        1.10129       -1.21897
C          5.42730        0.23198       -0.65559
H          6.42273        0.47675       -0.99742
C          5.07317       -0.73195        0.23547
Cl         6.19518       -1.79146        1.00643
C          3.66346       -0.77827        0.48285
C          3.06066       -1.69019        1.39987
N          2.57988       -2.43893        2.14269
C         -3.21558       -0.07936        0.67847
N         -2.91706        0.61917        1.76734
S         -4.26285        0.64099        2.68795
N         -5.26678       -0.23601        1.74599
C         -4.56784       -0.57462        0.66776
C         -5.04052       -1.36059       -0.42496
H         -6.05935       -1.73423       -0.42583
C         -4.17022       -1.61801       -1.43481
O         -4.44885       -2.34957       -2.54774
C         -2.80841       -1.12117       -1.43852
O         -2.03054       -1.43002       -2.49016
H         -5.36193       -2.66068       -2.52883
H         -2.54990       -1.96970       -3.10567
