38
COMP72_220000.log	Energy: -2729968.0688725
C          1.19174       -1.49134       -0.43023
C         -0.14647       -1.03443       -0.05099
C         -0.76222       -1.17431        1.16071
Cl        -0.03658       -1.96272        2.50951
C         -2.05437       -0.56794        1.20522
Cl        -3.04367       -0.55651        2.61357
C         -2.40951        0.01680        0.02017
S         -1.15471       -0.17292       -1.15808
C         -3.64908        0.71615       -0.30456
S         -3.67245        2.43207       -0.56270
C         -5.36187        2.42974       -0.86869
H         -5.88932        3.34326       -1.10286
C         -5.88758        1.17840       -0.76988
Cl        -7.55721        0.81775       -1.01598
C         -4.90448        0.18961       -0.44969
Cl        -5.26490       -1.48587       -0.29178
C          2.37797       -0.80324       -0.36988
C          2.53481        0.59817        0.10648
O          1.58674        1.27655        0.46858
C          3.92606        1.09369        0.09964
C          4.28875        2.35245        0.50778
C          3.42798        3.46160        1.02582
S          5.99948        2.55198        0.34941
C          6.24437        0.95449       -0.26665
C          7.61107        0.46627       -0.63179
C          5.04409        0.29595       -0.34328
C          4.88814       -1.08840       -0.82836
O          5.81685       -1.78028       -1.21521
C          3.49155       -1.59061       -0.80735
C          3.13005       -2.84977       -1.19202
H          3.78964       -3.62572       -1.55631
S          1.44454       -3.10000       -1.02771
H          2.66987        3.73125        0.28551
H          4.02067        4.34808        1.26679
H          2.89069        3.13901        1.92193
H          8.37088        1.23047       -0.44838
H          7.64239        0.17986       -1.68677
H          7.86101       -0.42951       -0.05652
