50
COMP92_330000.log	Energy: -1567637.6600300
C          0.88123       -0.20967        0.20857
C         -0.56548       -0.20655        0.52714
C         -1.13627        0.01196        1.75407
C         -0.36861        0.35452        2.90699
N          0.28291        0.63315        3.82362
C         -2.56490       -0.08100        1.72384
C         -3.37964        0.14212        2.87444
N         -4.03662        0.31687        3.81310
C         -3.05139       -0.38487        0.46947
S         -1.75244       -0.55621       -0.66194
C         -4.43674       -0.59090        0.06468
S         -5.55865       -1.41841        1.09327
C         -6.82393       -1.26773       -0.04406
H         -7.81004       -1.65640        0.16886
C         -6.42238       -0.61810       -1.17865
C         -7.28323       -0.35625       -2.28822
N         -7.98676       -0.15039       -3.18509
C         -5.04297       -0.22518       -1.12047
C         -4.39401        0.48116       -2.17773
N         -3.87189        1.04540       -3.04501
C          1.52397       -1.46690        0.14847
C          2.87332       -1.56075       -0.08904
C          3.51398       -2.90512       -0.14670
O          2.86861       -3.92398       -0.00416
N          4.89070       -2.92787       -0.37449
C          5.56943       -4.22199       -0.43573
C          5.69841       -1.80188       -0.55322
O          6.89059       -1.92319       -0.74845
C          5.03302       -0.47290       -0.49360
C          5.77498        0.67365       -0.65748
H          6.84268        0.58835       -0.82803
C          5.14972        1.93419       -0.59885
C          3.79369        2.03360       -0.38398
C          3.16746        3.38047       -0.32213
O          3.81738        4.39815       -0.44450
N          1.78480        3.41122       -0.12206
C          1.11308        4.71082       -0.07998
C          0.96115        2.29795        0.01573
O         -0.24062        2.44195        0.12663
C          1.61379        0.95360        0.01273
C          3.00821        0.86860       -0.21447
C          3.64073       -0.39225       -0.26710
H          0.95407       -2.37752        0.30177
H          4.82411       -4.99807       -0.28004
H          6.33796       -4.26966        0.33782
H          6.04662       -4.34134       -1.41017
H          5.72447        2.84577       -0.72033
H          1.87043        5.48011       -0.20786
H          0.60692        4.83023        0.87965
H          0.37060        4.76701       -0.87784
