28
COMP52_220000.log	Energy: -2559326.5896212
C         -1.85804       -0.17105       -0.11105
C         -0.47587        0.28141       -0.05439
C          0.08481        1.48293       -0.40481
Cl        -0.80125        2.82388       -1.02760
C          1.50337        1.50976       -0.23767
Cl         2.47068        2.87932       -0.63233
C          2.01437        0.33382        0.23873
S          0.74450       -0.81230        0.51211
C          3.40754        0.00083        0.52501
S          4.22531        0.64915        1.91154
C          5.67574       -0.18527        1.52829
H          6.55758       -0.08798        2.14519
C          5.54350       -0.92958        0.39666
Cl         6.80994       -1.89118       -0.27311
C          4.23987       -0.82474       -0.18225
Cl         3.78054       -1.63908       -1.62892
C         -2.29080       -1.42820       -0.45177
H         -1.64032       -2.22917       -0.78438
N         -3.63292       -1.64513       -0.37611
C         -4.24531       -0.56460        0.02303
S         -3.22438        0.80315        0.33510
C         -5.68720       -0.46969        0.19169
S         -6.72496       -1.82205       -0.14562
C         -8.06805       -0.84354        0.30141
H         -9.07848       -1.22608        0.27590
C         -7.64491        0.40108        0.66307
H         -8.29009        1.20831        0.98651
N         -6.29401        0.60921        0.59960
