38
COMP57_430400.log	Energy: -1758789.4614385
C          2.00557       -0.12075       -0.33695
C          0.65717        0.39058       -0.41498
C          0.22263        1.66584       -0.72014
C          1.04190        2.77194       -1.08092
N          1.61531        3.73396       -1.38677
C         -1.20538        1.80150       -0.69481
O         -1.86754        2.94080       -0.96436
C         -1.86095        0.63693       -0.38451
S         -0.70523       -0.62686       -0.05821
C         -3.29495        0.46173       -0.32381
C         -3.94514       -0.69406       -0.08331
C         -5.39038       -0.80176        0.04235
C         -6.26020        0.10218        0.60601
O         -5.95035        1.28254        1.17598
C         -7.62388       -0.33967        0.57888
C         -8.71428        0.41659        1.10407
N         -9.60818        1.02005        1.52817
C         -7.75859       -1.57588        0.00469
H         -8.67741       -2.12625       -0.13983
S         -6.25598       -2.21428       -0.50231
C          2.45601       -1.39121       -0.65906
O          1.73957       -2.41642       -1.14214
N          3.77655       -1.62430       -0.46936
C          4.36442       -0.55337       -0.00923
S          3.35567        0.83078        0.22287
C          5.78394       -0.49388        0.29536
S          6.81509       -1.86422        0.06019
C          8.13085       -0.91161        0.63455
H          9.13049       -1.31529        0.70981
C          7.69004        0.34711        0.95334
O          8.40928        1.37868        1.43395
N          6.36394        0.57783        0.76020
H         -1.24317        3.64863       -1.17983
H         -3.85879        1.36879       -0.53491
H         -3.37754       -1.61619        0.04298
H         -4.99155        1.32702        1.30546
H          0.86047       -2.11347       -1.41097
H          9.33082        1.10922        1.52437
