40
COMP71_100010.log	Energy: -1748741.4427792
C         -0.76222        1.62197        0.15583
C          0.61963        1.17654        0.06371
C          1.20844        0.16528        0.74410
F          0.58224       -0.59597        1.63370
C          2.60163       -0.03258        0.46715
C          3.45916       -0.99028        1.00587
H          3.09471       -1.71426        1.72665
C          4.77775       -0.97353        0.57809
S          6.06432       -2.05405        1.08044
C          7.20515       -1.24243        0.03801
H          8.23465       -1.56566       -0.01659
C          6.63677       -0.22502       -0.63705
F          7.28191        0.56165       -1.50192
C          5.23878       -0.02333       -0.36588
C          4.38131        0.93578       -0.90241
H          4.74380        1.65916       -1.62484
C          3.06307        0.91893       -0.47420
S          1.77784        1.99218       -0.98571
C         -1.93206        0.89862        0.07929
C         -2.04982       -0.55186       -0.23297
O         -1.08533       -1.26204       -0.46641
C         -3.43639       -1.06745       -0.25933
C         -3.75303       -2.38215       -0.48990
C         -2.84638       -3.54025       -0.76665
S         -5.46977       -2.59302       -0.43131
C         -5.77862       -0.92440       -0.10039
C         -7.17379       -0.41047        0.06962
C         -4.59367       -0.23724       -0.03635
C         -4.48534        1.20875        0.22293
O         -5.44779        1.94151        0.39311
C         -3.09352        1.72287        0.26073
C         -2.79208        3.03847        0.45389
H         -3.49763        3.84496        0.59973
S         -1.10161        3.30559        0.43935
H         -2.08937       -3.62524        0.01715
H         -2.30836       -3.38546       -1.70635
H         -3.40448       -4.47830       -0.82952
H         -7.90991       -1.21406       -0.01666
H         -7.39144        0.35248       -0.68315
H         -7.28536        0.07105        1.04492
