26
COMP43_000010.log	Energy: -692748.7723198
C          0.56255        0.66681       -0.04958
C          1.90924        0.07798       -0.01497
C          2.10650       -1.26574       -0.35900
C          3.38281       -1.81471       -0.33207
H          3.51826       -2.85875       -0.59692
C          4.47948       -1.03876        0.03144
H          5.47419       -1.47350        0.05064
C          4.29226        0.29653        0.37817
C          3.01891        0.84942        0.35868
H          2.88916        1.88711        0.65383
C         -0.68510        0.09670       -0.02940
C         -1.29385       -1.25977        0.04990
O         -0.78393       -2.35866        0.07080
N         -2.67838       -1.03895        0.08230
C         -3.65380       -2.10397        0.16304
C         -3.03980        0.31160        0.01855
O         -4.17527        0.72502        0.02669
C         -1.75006        1.03857       -0.05556
C         -1.35380        2.33170       -0.11114
H         -1.95488        3.22989       -0.13770
S          0.37074        2.40839       -0.13788
H          1.25727       -1.88340       -0.62728
H          5.13850        0.90950        0.67291
H         -3.12504       -3.04966        0.04069
H         -4.39905       -1.98413       -0.62656
H         -4.16015       -2.08779        1.13200
