32
COMP37_040000.log	Energy: -1230059.4420309
C         -3.04750        0.04239        0.00826
C         -1.62452       -0.26830        0.16989
C         -1.04427       -1.38872        0.73691
O         -1.66900       -2.44978        1.29028
C          0.37422       -1.33537        0.76931
H          0.96797       -2.12412        1.21425
C          0.88372       -0.19474        0.20951
S         -0.38540        0.84482       -0.34638
C          2.26937        0.20840        0.02726
C          3.31785       -0.62657        0.12780
C          4.70963       -0.22876       -0.00273
C          5.26353        1.02721       -0.02153
H          4.68698        1.93912        0.09720
C          6.67825        1.00514       -0.18474
O          7.47432        2.10465       -0.23390
C          7.18758       -0.25993       -0.28062
H          8.22354       -0.53887       -0.40308
S          5.93933       -1.44051       -0.17533
C         -3.56169        1.32863        0.22366
F         -2.74985        2.32189        0.59031
C         -4.91085        1.61516        0.06698
F         -5.32999        2.86082        0.28890
C         -5.81853        0.63469       -0.29689
H         -6.87108        0.86103       -0.41113
C         -5.33580       -0.64427       -0.50969
F         -6.16368       -1.62597       -0.86739
C         -3.98453       -0.92340       -0.37243
F         -3.58130       -2.18852       -0.61640
H         -2.53131       -2.57333        0.87229
H          2.44062        1.25540       -0.21452
H          3.13547       -1.68390        0.30972
H          6.92703        2.89353       -0.15288
