36
COMP29_000400.log	Energy: -1323517.3015374
C         -1.93876        0.41702       -0.00666
C         -0.47917        0.31620        0.02573
C          0.43437        1.34354        0.17717
C          1.76994        0.89881        0.11811
C          1.87191       -0.45710       -0.08028
S          0.34724       -1.23053       -0.17819
C          3.27403       -0.81314       -0.11616
C          4.02877        0.32372        0.05452
C          3.14120        1.54656        0.22911
C          3.36810        2.57478       -0.89067
C          3.34141        2.19428        1.60870
C          5.42437        0.06553        0.02223
C          5.68927       -1.26187       -0.17146
H          6.65463       -1.74458       -0.23762
S          4.24571       -2.21724       -0.31712
C         -2.79627       -0.74255        0.07627
N         -2.37941       -1.99779        0.19241
S         -3.70349       -2.94741        0.24539
N         -4.86293       -1.80563        0.12104
C         -4.23667       -0.63725        0.03480
C         -4.86636        0.63187       -0.08943
H         -5.94781        0.71082       -0.11873
C         -4.04596        1.71094       -0.16565
O         -4.47614        2.99849       -0.29331
C         -2.60275        1.62014       -0.12862
O         -1.93206        2.78935       -0.22457
H          0.13673        2.37095        0.32409
H          3.23583        2.11324       -1.87356
H          4.38096        2.98922       -0.83406
H          2.65557        3.40199       -0.79896
H          3.18456        1.46240        2.40640
H          2.63255        3.01773        1.75002
H          4.35581        2.59812        1.70215
H          6.19971        0.81480        0.13523
H         -5.43841        3.02368       -0.35220
H         -2.58407        3.49674       -0.34158
