44
COMP94_300000.log	Energy: -1403361.9410865
C         -0.07709       -0.24797       -0.09777
C         -1.55252       -0.30961        0.00360
C         -2.31414        0.08434        1.07583
C         -1.76304        0.72181        2.22510
N         -1.30668        1.24700        3.15248
C         -3.70058       -0.18380        0.85849
S         -5.15405        0.05350        1.76664
C         -6.09168       -0.65508        0.50251
H         -7.16400       -0.74520        0.60758
C         -5.34133       -1.05710       -0.57065
C         -5.88207       -1.67051       -1.74012
N         -6.30327       -2.17134       -2.69678
C         -3.95298       -0.78098       -0.35745
S         -2.49983       -1.02282       -1.26324
C          0.62097       -1.47335        0.01794
C          1.99301       -1.51313        0.01698
C          2.68645       -2.82541        0.14622
O          2.06919       -3.86773        0.23177
N          4.08232       -2.79126        0.16211
C          4.81173       -4.05231        0.28900
C          4.86260       -1.63578        0.07909
O          6.07454       -1.70707        0.11240
C          4.14472       -0.33985       -0.05252
C          4.85825        0.83301       -0.13812
H          5.94172        0.79258       -0.10814
C          4.18240        2.06188       -0.25750
C          2.80673        2.10359       -0.29541
C          2.12905        3.42073       -0.41502
O          2.75071        4.46265       -0.46512
N          0.73478        3.39338       -0.47587
C          0.01979        4.65957       -0.63514
C         -0.05605        2.24529       -0.46871
O         -1.25273        2.33660       -0.65556
C          0.63257        0.93804       -0.23922
C          2.04914        0.91121       -0.21144
C          2.73239       -0.31741       -0.08323
H          0.07075       -2.40248        0.12631
H          4.08361       -4.85961        0.29937
H          5.39166       -4.05172        1.21421
H          5.49767       -4.16434       -0.55236
H          4.73118        2.99533       -0.31823
H          0.74441        5.46412       -0.53744
H         -0.74985        4.73876        0.13387
H         -0.45873        4.69828       -1.61601
