28
COMP44_400000.log	Energy: -1286059.1569986
C         -0.84952       -0.81605       -0.17425
C          0.54610       -0.43989       -0.08206
C          1.59605       -1.24172        0.32331
O          1.55562       -2.51680        0.76482
C          2.84204       -0.56823        0.23093
S          4.48052       -0.98840        0.59557
C          5.00124        0.60546        0.11038
H          6.05222        0.85928        0.15234
C          3.97540        1.40676       -0.29874
O          4.02644        2.68743       -0.73338
C          2.72307        0.72380       -0.23179
S          1.08833        1.17103       -0.54820
C         -2.00012       -0.08537       -0.03837
C         -2.38176        1.31022        0.29389
O         -1.69668        2.28201        0.51115
N         -3.78810        1.30640        0.30832
C         -4.58251        2.47967        0.60036
C         -4.35614        0.06328        0.01737
O         -5.54158       -0.16760       -0.02179
C         -3.19421       -0.83574       -0.20977
C         -3.00014       -2.14616       -0.48367
H         -3.72834       -2.93057       -0.63550
S         -1.30225       -2.47329       -0.57832
H          0.64889       -2.76997        0.98842
H          4.93776        3.00174       -0.70283
H         -3.89419        3.31035        0.75999
H         -5.18334        2.31635        1.49866
H         -5.24957        2.70208       -0.23611
