32
COMP51_300010.log	Energy: -1569321.0950816
C         -1.61402       -0.50365       -0.08815
C         -0.17483       -0.33484       -0.04686
C          0.57452        0.81314       -0.09324
C          0.04763        2.13197       -0.19679
N         -0.32296        3.22880       -0.27683
C          2.00226        0.57810       -0.04905
C          3.02829        1.51939       -0.08629
H          2.80485        2.57972       -0.15146
C          4.33092        1.04332       -0.04024
S          5.79562        2.00313       -0.07154
C          6.77597        0.58338        0.02037
H          7.85429        0.66927        0.03185
C          6.05480       -0.56825        0.07353
C          6.63067       -1.87110        0.15480
N          7.06078       -2.94589        0.22091
C          4.62440       -0.33909        0.04034
C          3.59645       -1.28058        0.07719
H          3.81926       -2.34116        0.13989
C          2.29689       -0.80313        0.03154
S          0.83480       -1.76080        0.07397
C         -2.29147       -1.67100       -0.35383
H         -1.81898       -2.61754       -0.59162
N         -3.64729       -1.60252       -0.32474
C         -4.03310       -0.38770       -0.03748
S         -2.76400        0.76543        0.21459
C         -5.42792        0.00980        0.06523
S         -6.71300       -1.12996       -0.19683
C         -7.83549        0.13685        0.10857
H         -8.90221       -0.03280        0.07265
C         -7.17463        1.29894        0.37968
H         -7.64696        2.24687        0.60439
N         -5.80954        1.22209        0.35426
