29
COMP42_300001.log	Energy: -1331310.3842847
C          2.15732        0.55116       -0.02259
C          0.73540        0.86049       -0.04599
C          0.11252        2.09362       -0.18782
C          0.77501        3.34625       -0.36205
N          1.27325        4.38413       -0.50354
C         -1.30755        2.02248       -0.16569
H         -1.94323        2.89059       -0.29302
C         -1.76495        0.74528       -0.00271
S         -0.46008       -0.38487        0.13399
C         -3.14354        0.28031        0.05606
S         -4.40390        1.31262        0.66754
C         -5.59787        0.11573        0.40171
H         -6.63644        0.30212        0.63636
C         -5.05488       -1.03136       -0.11680
C         -5.82863       -2.19122       -0.43490
N         -6.45178       -3.13315       -0.69477
C         -3.64354       -0.93657       -0.31716
H         -3.04529       -1.73530       -0.73940
C          2.79772       -0.66484        0.03036
C          2.43934       -2.10982        0.07416
O          1.35787       -2.65079        0.08728
N          3.66752       -2.77433        0.10346
H          3.73377       -3.78179        0.13977
C          4.79335       -1.93823        0.09146
O          5.94231       -2.29951        0.11619
C          4.21195       -0.57142        0.04273
C          4.68267        0.69928        0.00471
H          5.70619        1.04859        0.00237
S          3.37490        1.81692       -0.05045
