26
COMP54_400200.log	Energy: -2028358.8024714
C         -0.26001        0.43776       -0.14368
C         -1.67252        0.10840       -0.07820
C         -2.63928        0.74332        0.66656
O         -2.50266        1.80240        1.48385
C         -3.90900        0.11348        0.52619
S         -5.48556        0.40951        1.17131
C         -6.10942       -0.96661        0.29875
H         -7.15635       -1.22490        0.38651
C         -5.15968       -1.60957       -0.44080
O         -5.29815       -2.70131       -1.22906
C         -3.88443       -0.98350       -0.30465
S         -2.31426       -1.27711       -0.96213
C          0.35834        1.63630       -0.41329
Cl        -0.48956        3.09537       -0.80423
N          1.71358        1.66533       -0.38726
C          2.17677        0.47787       -0.10990
S          0.98199       -0.74476        0.16311
C          3.59761        0.17840       -0.03509
S          4.79612        1.39935       -0.32563
C          6.01044        0.21679       -0.03687
H          7.06472        0.44427       -0.08944
C          5.42073       -0.97885        0.24914
Cl         6.29341       -2.42727        0.60351
N          4.06175       -1.00606        0.25254
H         -1.61010        2.16567        1.40932
H         -6.21454       -3.00114       -1.20516
