29
COMP22_200400.log	Energy: -1827065.3324387
C         -2.12078       -0.20103       -0.19375
C         -0.72316       -0.54133        0.09534
C         -0.23022       -1.54723        0.88140
Cl        -1.22643       -2.64289        1.78254
C          1.18749       -1.60288        0.94667
H          1.73130       -2.31773        1.55228
C          1.77719       -0.62343        0.19556
S          0.58856        0.35758       -0.59861
C          3.19763       -0.35536        0.02059
S          4.35478       -1.65304        0.04927
C          5.67027       -0.56912       -0.19702
H          6.68882       -0.92573       -0.24831
C          5.22419        0.71175       -0.31179
Cl         6.27269        2.07027       -0.57260
C          3.81337        0.84891       -0.18709
H          3.29531        1.79946       -0.22502
C         -2.67333        1.07438        0.16673
N         -2.01806        2.06422        0.76326
S         -3.08704        3.28242        0.95699
N         -4.41570        2.60145        0.29511
C         -4.05554        1.38585       -0.10177
C         -4.90197        0.42877       -0.73516
H         -5.94309        0.66529       -0.92892
C         -4.35018       -0.76452       -1.07415
O         -5.00859       -1.78481       -1.68853
C         -2.95941       -1.08697       -0.81886
O         -2.51292       -2.28611       -1.22520
H         -5.92883       -1.54333       -1.84813
H         -3.25529       -2.77378       -1.61205
