56
COMP95_000020.log	Energy: -1039424.8355018
C          0.44907        0.13577       -0.19314
C         -1.02238        0.30568       -0.35133
C         -1.87376       -0.32211        0.55197
C         -3.24117       -0.22613        0.31642
N         -4.29392       -0.72284        1.05727
O         -4.14825       -1.61145        2.08655
C         -4.03055       -2.94608        1.58391
C         -5.49489       -0.46246        0.42477
C         -6.78794       -0.82358        0.79356
C         -7.82034       -0.40173       -0.03291
H         -8.84334       -0.66304        0.22077
C         -7.57179        0.36089       -1.18466
C         -6.27725        0.71526       -1.53795
C         -5.21708        0.29576       -0.73300
C         -3.77611        0.44741       -0.80057
C         -2.90054        1.06554       -1.69497
C         -1.53723        0.99059       -1.46776
C          0.93146       -1.19462       -0.29706
C          2.26862       -1.49076       -0.23560
C          2.71300       -2.90617       -0.35527
O          1.92243       -3.82035       -0.48325
N          4.09186       -3.13054       -0.31324
C          4.58184       -4.50204       -0.43281
C          5.06650       -2.14133       -0.16341
O          6.24464       -2.43856       -0.13788
C          4.59441       -0.73740       -0.03842
C          5.50956        0.27969        0.11312
H          6.56686        0.03963        0.13867
C          5.06480        1.60766        0.23131
C          3.71873        1.90232        0.20208
C          3.29622        3.32029        0.33262
O          4.10082        4.22624        0.43717
N          1.92325        3.55170        0.34062
C          1.45147        4.92123        0.53593
C          0.92615        2.57044        0.25594
O         -0.23410        2.89512        0.39685
C          1.36453        1.16386        0.00607
C          2.75634        0.87662        0.04654
C          3.21202       -0.45387       -0.07700
H         -1.49205       -0.84778        1.42131
H         -3.91793       -3.57523        2.46782
H         -3.14982       -3.04076        0.93973
H         -4.93102       -3.23115        1.02955
H         -6.97109       -1.39917        1.69452
H         -8.40448        0.67729       -1.80483
H         -6.08988        1.30432       -2.43111
H         -3.28220        1.59206       -2.56459
H         -0.84738        1.46528       -2.15805
H          0.22253       -2.00238       -0.44546
H          3.72024       -5.15480       -0.55093
H          5.14508       -4.77184        0.46280
H          5.24405       -4.58176       -1.29703
H          5.77081        2.42278        0.34688
H          2.31751        5.57814        0.50479
H          0.94443        5.00835        1.49936
H          0.74305        5.17942       -0.25257
