34
COMP47_100000.log	Energy: -1413312.6553602
C          2.47535        0.78057       -0.00236
C          1.10719        0.30604       -0.00226
C          0.68616       -1.00169       -0.00216
H          1.35847       -1.85187       -0.00222
C         -0.71948       -1.09212       -0.00164
F         -1.33872       -2.27865       -0.00129
C         -1.40110        0.10180       -0.00146
S         -0.24596        1.39998       -0.00210
C         -2.82124        0.39126       -0.00042
C         -3.79210       -0.54382       -0.00130
C         -5.21544       -0.26702        0.00012
C         -5.90541        0.91956        0.00483
F         -5.30177        2.11518        0.00910
C         -7.31782        0.80755        0.00497
H         -7.98677        1.65841        0.00829
C         -7.70791       -0.49855        0.00024
H         -8.71609       -0.88827       -0.00095
S         -6.36522       -1.57442       -0.00418
C          3.65494        0.07840       -0.00104
C          4.10210       -1.33552        0.00037
O          3.46448       -2.36731        0.00070
N          5.50248       -1.27534        0.00102
C          6.35235       -2.44631        0.00669
C          6.01431        0.02808        0.00133
O          7.18888        0.30943        0.00295
C          4.81273        0.90006       -0.00073
C          4.55558        2.22931       -0.00190
H          5.24669        3.06051       -0.00197
S          2.84640        2.49416       -0.00321
H         -3.09295        1.44183        0.00131
H         -3.51539       -1.59318       -0.00326
H          5.70591       -3.32392       -0.02567
H          6.96233       -2.46704        0.91348
H          7.01310       -2.43590       -0.86358
