37
COMP21_400000.log	Energy: -1347441.4868963
C          2.60146        0.83789        0.21445
C          1.16849        0.54970        0.09512
C          0.46110       -0.62206        0.21393
O          0.95663       -1.85046        0.42676
C         -0.98378       -0.45048        0.13421
C         -1.99976       -1.41589        0.22769
C         -1.78967       -2.89184        0.44396
C         -3.30230       -0.93239        0.10929
S         -4.72288       -1.95635        0.19777
C         -5.76071       -0.57775       -0.03955
H         -6.83484       -0.70936       -0.06585
C         -5.08152        0.58427       -0.17644
O         -5.63769        1.81020       -0.37219
C         -3.63868        0.42849       -0.09671
C         -2.62297        1.39152       -0.19223
C         -2.84561        2.86472       -0.41220
C         -1.32340        0.90736       -0.06683
S          0.09079        1.92505       -0.16605
C          3.64446       -0.11809       -0.06297
N          3.47567       -1.39126       -0.42136
S          4.95414       -2.04925       -0.62552
N          5.86835       -0.75681       -0.27875
C          5.03993        0.24632        0.01712
C          5.43009        1.56430        0.37898
H          6.48076        1.82322        0.43120
C          4.43018        2.44986        0.64785
H          4.67331        3.46862        0.93324
C          3.05167        2.09245        0.56888
H          2.32493        2.86091        0.81128
H          1.89023       -1.88767        0.12591
H         -0.73621       -3.15496        0.47743
H         -2.26979       -3.46153       -0.36148
H         -2.25738       -3.20583        1.38549
H         -6.59750        1.71641       -0.39190
H         -3.90168        3.11475       -0.48127
H         -2.35267        3.19040       -1.33673
H         -2.40531        3.44201        0.41036
