35
COMP27_400400.log	Energy: -1393210.2228794
C          2.57355        0.33205        0.00571
C          1.24419       -0.27468       -0.07254
C          0.95707       -1.61460       -0.19926
H          1.72338       -2.37549       -0.25891
C         -0.43173       -1.88485       -0.23855
O         -0.97926       -3.12368       -0.35200
C         -1.22214       -0.76258       -0.14773
S         -0.23450        0.65654       -0.00197
C         -2.66829       -0.74854       -0.16351
C         -3.45686        0.34622       -0.13302
C         -4.90832        0.30511       -0.05715
C         -5.69915       -0.59396        0.62350
O         -5.26279       -1.63357        1.37559
C         -7.09591       -0.32554        0.51837
H         -7.85073       -0.93780        0.99579
C         -7.35077        0.78019       -0.23190
H         -8.31423        1.20641       -0.47443
S         -5.90703        1.51509       -0.82015
C          3.78378       -0.46236       -0.03638
N          3.85676       -1.78510       -0.15028
S          5.43638       -2.19093       -0.14867
N          6.09881       -0.70867       -0.00323
C          5.09078        0.15373        0.04822
C          5.23299        1.56436        0.17427
H          6.21827        2.01317        0.23797
C          4.08768        2.28933        0.20984
O          4.02441        3.64430        0.32587
C          2.77461        1.68965        0.12738
O          1.72625        2.53288        0.17739
H         -0.27104       -3.77501       -0.40693
H         -3.12046       -1.73578       -0.24597
H         -2.99658        1.33428       -0.14583
H         -4.30525       -1.54329        1.49129
H          4.91182        4.01910        0.37537
H          2.06051        3.43900        0.26051
