62
COMP91_000032.log	Energy: -1764213.0788852
C         -1.10962       -0.04957        0.00999
C          0.36961       -0.03001        0.07103
C          1.19962       -0.82756       -0.63419
H          0.87088       -1.52253       -1.39183
C          2.58530       -0.64266       -0.27976
C          3.71282       -1.28146       -0.82896
C          3.52099       -2.30746       -1.89699
O          2.45941       -2.77281       -2.24790
O          4.68242       -2.68139       -2.44727
C          4.60086       -3.68422       -3.45957
C          4.97462       -0.93328       -0.32957
S          6.52907       -1.57303       -0.82461
C          7.34327       -0.58260        0.34379
H          8.42149       -0.63755        0.42201
C          6.52152        0.20265        1.06963
H          6.84976        0.89139        1.83219
C          5.13426        0.02700        0.70868
C          4.00419        0.66410        1.25921
C          4.18921        1.67828        2.33812
O          5.24883        2.10970        2.73387
O          3.01822        2.08320        2.84910
C          3.09085        3.07279        3.87449
C          2.74385        0.32080        0.75415
S          1.19121        0.95731        1.25353
C         -1.73792       -1.20430        0.53943
C         -3.10318       -1.32335        0.57961
C         -3.70494       -2.55933        1.15178
O         -3.05644       -3.49756        1.55348
N         -5.10495       -2.56890        1.18354
O         -5.68050       -3.63066        1.82655
C         -5.96397       -4.68990        0.91048
C         -5.98659       -1.58368        0.72142
O         -7.18586       -1.73258        0.77858
C         -5.33387       -0.37308        0.15206
C         -6.12189        0.65210       -0.31786
H         -7.20050        0.55344       -0.26162
C         -5.52474        1.80423       -0.85762
C         -4.15389        1.91372       -0.92724
C         -3.57235        3.14885       -1.51396
O         -4.23266        4.08867       -1.89543
N         -2.17916        3.14931       -1.59288
O         -1.62602        4.18439       -2.29675
C         -1.25992        5.25483       -1.42530
C         -1.27687        2.16044       -1.16689
O         -0.09070        2.30416       -1.34421
C         -1.89725        0.97447       -0.50189
C         -3.31555        0.87423       -0.45083
C         -3.92307       -0.27764        0.09803
H          5.62948       -3.87036       -3.76495
H          4.00636       -3.32450       -4.30226
H          4.14523       -4.59250       -3.05909
H          2.05714        3.28524        4.14383
H          3.58645        3.97166        3.50130
H          3.64267        2.68785        4.73487
H         -1.12489       -2.01006        0.92922
H         -6.41210       -5.47069        1.52563
H         -5.04172       -5.06043        0.45348
H         -6.67833       -4.35947        0.15080
H         -6.13005        2.62413       -1.22881
H         -0.83300        6.01046       -2.08537
H         -0.50744        4.92347       -0.70366
H         -2.14302        5.65790       -0.92068
