52
COMP97_210002.log	Energy: -2180316.7633557
C          1.43276       -0.25327        0.34560
C          0.00612       -0.46886        0.65967
C         -0.49342       -1.10950        1.74865
F          0.26297       -1.57572        2.73660
C         -1.91041       -1.22883        1.75661
Cl        -2.75369       -1.98609        3.05596
C         -2.49904       -0.67855        0.64661
S         -1.28223       -0.02976       -0.41434
C         -3.91657       -0.63038        0.34866
C         -4.46077        0.08106       -0.65429
C         -5.86828        0.15800       -1.00497
C         -6.96628       -0.58317       -0.63843
Cl        -6.97941       -1.94969        0.41531
C         -8.17003       -0.13236       -1.25452
F         -9.33401       -0.72820       -1.02345
C         -8.00608        0.93187       -2.07999
H         -8.76426        1.44590       -2.65136
S         -6.35410        1.40945       -2.11675
C          2.17870       -1.40496       -0.00709
C          3.50319       -1.32203       -0.35115
C          4.23435       -2.56674       -0.71804
O          3.73165       -3.66639       -0.70223
N          5.57410       -2.37648       -1.07537
O          6.23074       -3.48272       -1.54078
C          6.89174       -4.16985       -0.47602
C          6.29650       -1.17691       -1.11104
O          7.46788       -1.15375       -1.41079
C          5.51783        0.03702       -0.74035
C          6.14241        1.26246       -0.75956
H          7.18725        1.31700       -1.04523
C          5.42581        2.42056       -0.41104
C          4.10262        2.33827       -0.04022
C          3.39400        3.59009        0.33001
O          3.89792        4.68879        0.28028
N          2.07424        3.40504        0.74644
O          1.45980        4.50956        1.27089
C          0.71810        5.20271        0.26626
C          1.34405        2.21006        0.83588
O          0.21462        2.22004        1.26533
C          2.06314        0.98540        0.36554
C          3.43142        1.08978       -0.00954
C          4.15533       -0.06883       -0.37192
H         -4.54159       -1.21316        1.01599
H         -3.80893        0.69184       -1.27829
H          1.69190       -2.37433       -0.01441
H          7.37270       -5.02181       -0.95719
H          6.16592       -4.52136        0.26300
H          7.64727       -3.52670       -0.01536
H          5.90144        3.39516       -0.42493
H          0.28140        6.05582        0.78604
H         -0.07581        4.56494       -0.13370
H          1.38362        5.55284       -0.52836
