40
COMP41_200020.log	Energy: -2008532.6491505
C         -2.59323        0.51424       -0.62478
C         -1.15039        0.39310       -0.43315
C         -0.23854        1.37257       -0.17991
Cl        -0.68443        3.03666        0.00186
C          1.12040        0.89471       -0.06605
C          2.31966        1.57183        0.19648
O          2.38552        2.91754        0.40051
C          2.24266        3.30706        1.76504
C          3.49206        0.82560        0.21594
S          5.07702        1.50641        0.49548
C          5.79536       -0.06933        0.36780
H          6.86219       -0.19428        0.49134
C          4.89996       -1.04919        0.11557
Cl         5.38033       -2.70942       -0.02942
C          3.53546       -0.57524        0.00573
C          2.33747       -1.25139       -0.25202
O          2.26815       -2.59793       -0.45006
C          2.43392       -2.99842       -1.80802
C          1.16399       -0.50494       -0.27488
S         -0.41166       -1.18872       -0.55459
C         -3.60550       -0.17986       -0.02625
C         -3.75614       -1.19428        1.05282
O         -2.92042       -1.74179        1.73109
N         -5.14037       -1.40906        1.14667
C         -5.74072       -2.33214        2.08517
C         -5.89852       -0.64187        0.25292
O         -7.10306       -0.66916        0.16842
C         -4.89697        0.15284       -0.50378
C         -4.89573        1.09588       -1.47952
H         -5.73381        1.53660       -2.00183
S         -3.27780        1.58723       -1.82476
H          2.33129        4.39376        1.78003
H          3.03223        2.86349        2.38305
H          1.26255        3.01374        2.15643
H          2.32387       -4.08317       -1.81859
H          3.42861       -2.72791       -2.17862
H          1.66720       -2.54381       -2.44685
H         -4.93224       -2.80564        2.64334
H         -6.31951       -3.08970        1.55104
H         -6.40371       -1.79757        2.77007
