40
COMP29_000030.log	Energy: -1465710.0900474
C          2.90348        1.02761        0.01071
C          1.44505        0.93410       -0.05012
C          0.64478       -0.18282        0.02854
C         -0.72507        0.14566       -0.04906
C         -0.96737        1.48936       -0.18918
S          0.48188        2.39870       -0.23839
C         -2.39431        1.70897       -0.26824
C         -3.04324        0.50202       -0.16082
C         -2.03380       -0.62186       -0.00044
C         -2.16270       -1.65143       -1.12675
O         -1.33748       -1.88006       -1.96961
O         -3.35385       -2.26078       -1.04395
C         -3.59023       -3.26750       -2.02962
C         -2.09408       -1.37929        1.33087
O         -1.56615       -2.45203        1.49470
O         -2.73703       -0.69806        2.27704
C         -2.75104       -1.31483        3.56636
C         -4.45466        0.61796       -0.22811
C         -4.83799        1.91988       -0.38364
H         -5.84231        2.31139       -0.46837
S         -3.49115        3.01592       -0.44983
C          3.74239       -0.14460       -0.05733
N          3.33405       -1.40797       -0.17601
S          4.66789       -2.33529       -0.20989
N          5.81636       -1.19335       -0.07660
C          5.18039       -0.02280       -0.00045
C          5.80223        1.25093        0.12454
H          6.88266        1.32340        0.16682
C          4.98604        2.34014        0.18852
H          5.41576        3.33202        0.28804
C          3.56492        2.22702        0.13653
H          2.99188        3.14705        0.20974
H          1.03631       -1.18517        0.12846
H         -4.57759       -3.67052       -1.80758
H         -2.83091       -4.04949       -1.96044
H         -3.56840       -2.83100       -3.03081
H         -3.32246       -0.64181        4.20400
H         -1.73256       -1.43206        3.94376
H         -3.22936       -2.29538        3.51310
H         -5.14645       -0.21233       -0.16830
