31
COMP47_220001.log	Energy: -2417698.7348026
C         -3.54502        0.27550        0.00317
C         -2.16772        0.74425       -0.00432
C         -1.66541        2.02914       -0.01225
Cl        -2.60842        3.47320       -0.01818
C         -0.24403        2.08613       -0.01561
Cl         0.63205        3.57342       -0.02513
C          0.35159        0.84969       -0.01044
S         -0.84782       -0.39849       -0.00130
C          1.77494        0.57710       -0.01097
C          2.31537       -0.65529       -0.01414
C          3.72559       -1.00382       -0.01235
C          4.88425       -0.26020        0.01028
Cl         4.96487        1.46278        0.04663
C          6.06838       -1.06153        0.00370
Cl         7.66378       -0.40275        0.02941
C          5.80929       -2.39681       -0.02338
H          6.52801       -3.20314       -0.03306
S          4.12213       -2.69945       -0.04146
C         -4.04106       -1.01022        0.00444
C         -3.52379       -2.40727       -0.00342
O         -2.39247       -2.83471       -0.01167
N         -4.67054       -3.20770        0.00100
H         -4.62001       -4.21652        0.00196
C         -5.88174       -2.50653        0.01466
O         -6.98353       -2.99595        0.02385
C         -5.45870       -1.08273        0.01502
C         -6.07700        0.12158        0.02216
H         -7.13508        0.34465        0.03052
S         -4.90939        1.38701        0.01579
H          2.40434        1.45836       -0.00902
H          1.64743       -1.51642       -0.01907
