48
COMP84_000002.log	Energy: -1336832.1805640
C          2.24858       -0.20504       -0.13188
C          3.70919       -0.33992       -0.08051
C          4.57548        0.35563        0.71868
H          4.25277        1.08738        1.44917
C          5.92446       -0.03621        0.49952
S          7.45945        0.42365        1.16156
C          8.27381       -0.71706        0.13099
H          9.35021       -0.80641        0.18591
C          7.42968       -1.41647       -0.67599
H          7.75579       -2.16852       -1.38317
C          6.07653       -1.02209       -0.45929
S          4.54336       -1.48351       -1.11887
C          1.42353       -1.28720       -0.45890
C          0.03549       -1.17289       -0.49259
C         -0.56907        0.04579       -0.18341
C         -1.95507        0.55926       -0.14412
C         -1.81443        2.06064        0.07419
O         -2.63323        2.95536        0.04037
N         -0.47795        2.25970        0.33611
O          0.07056        3.49749        0.49578
C          0.22029        4.15298       -0.76939
C          0.28902        1.12305        0.11550
C          1.66209        1.03809        0.15285
C         -3.16153       -0.07328       -0.16820
C         -3.29458       -1.59010       -0.13037
O         -2.47602       -2.47085       -0.28761
N         -4.61561       -1.82756        0.18776
O         -5.17023       -3.06847        0.02142
C         -5.00413       -3.84352        1.20924
C         -5.39522       -0.67908        0.08564
C         -6.77136       -0.60200        0.15401
C         -7.34385        0.66197        0.01485
H         -8.42368        0.76633        0.06146
C         -6.54600        1.78383       -0.19156
C         -5.15642        1.68089       -0.25952
C         -4.55079        0.43176       -0.10949
H          1.86974       -2.25363       -0.67253
H         -0.57046       -2.02758       -0.74937
H          0.71017        5.09962       -0.53897
H         -0.75783        4.33588       -1.22168
H          0.85083        3.55676       -1.43819
H          2.25933        1.91582        0.37237
H         -5.50831       -4.78819        1.00040
H         -5.47284       -3.34652        2.06527
H         -3.94296       -4.02038        1.40316
H         -7.36715       -1.49675        0.29212
H         -7.00755        2.75882       -0.30904
H         -4.55123        2.55763       -0.42812
