26
COMP32_010000.log	Energy: -1211640.3577042
C          2.11252       -0.11378       -0.06466
C          0.67665       -0.40962       -0.13949
C          0.09307       -1.62749       -0.38246
H          0.62431       -2.54443       -0.58833
C         -1.31305       -1.55082       -0.33674
F         -2.08375       -2.62362       -0.55525
C         -1.83286       -0.31527       -0.05701
S         -0.53036        0.81677        0.13789
C         -3.22611        0.06469        0.04789
S         -4.53908       -1.05600       -0.19348
C         -5.71823        0.16486        0.09977
H         -6.76951       -0.08268        0.05367
C         -5.15988        1.37631        0.37251
H         -5.70468        2.28617        0.58741
C         -3.74568        1.29821        0.33913
F         -2.97217        2.36458        0.57591
C          2.63123        1.17010       -0.27469
F          1.81010        2.18879       -0.54752
C          3.99104        1.43762       -0.20423
F          4.40989        2.68513       -0.41707
C          4.90305        0.43557        0.07524
H          5.96429        0.64323        0.12942
C          4.41356       -0.84107        0.28886
F          5.25148       -1.83970        0.56961
C          3.05378       -1.11179        0.22534
F          2.66467       -2.36848        0.45994
