32
COMP52_030300.log	Energy: -1637207.6485835
C          0.71712       -0.25522       -0.32154
C         -0.66605        0.19240       -0.30345
C         -1.10593        1.47858       -0.47963
H         -0.45747        2.31950       -0.69527
C         -2.51579        1.59834       -0.35934
C         -3.19522        2.84913       -0.48588
N         -3.72608        3.87389       -0.59396
C         -3.14190        0.39414       -0.08730
S         -1.98956       -0.88530        0.00771
C         -4.56637        0.13204        0.07658
S         -5.73471        0.81152       -0.99981
C         -7.03336        0.04423       -0.17942
H         -8.04966        0.19534       -0.51597
C         -6.60700       -0.70623        0.87293
H         -7.25781       -1.26960        1.52890
C         -5.18880       -0.66039        1.02441
C         -4.50000       -1.33795        2.07741
N         -3.95603       -1.89256        2.93801
C          1.25718       -1.47806       -0.66864
C          0.49345       -2.60617       -1.10852
N         -0.14196       -3.50782       -1.46328
N          2.61977       -1.58195       -0.59757
C          3.13657       -0.45736       -0.20341
S          2.00149        0.81395        0.13127
C          4.56639       -0.24352       -0.03884
S          5.71685       -1.51032       -0.34942
C          6.96743       -0.41933        0.07297
H          8.00998       -0.70375        0.05660
C          6.43687        0.79731        0.41117
C          7.22004        1.92899        0.81150
N          7.87662        2.82760        1.13133
N          5.07081        0.89162        0.34603
