36
COMP73_000012.log	Energy: -1123246.5125832
C         -2.24369       -0.88713       -0.03675
C         -3.39106        0.04288       -0.01124
C         -3.51798        1.05656       -0.96643
C         -4.62874        1.88938       -0.95983
H         -4.71460        2.67296       -1.70644
C         -5.62746        1.72314       -0.00243
H         -6.49308        2.37902        0.00087
C         -5.51020        0.71654        0.95004
C         -4.39980       -0.12162        0.94373
H         -4.30476       -0.89841        1.69752
C         -0.88300       -0.67088       -0.07481
C         -0.20212        0.65404       -0.03527
O         -0.80404        1.71420       -0.01921
C          1.27417        0.57947       -0.01087
C          2.09197        1.67383        0.04812
O          1.70354        2.94525        0.07616
C          2.68391        3.95184        0.25013
S          3.79673        1.22474        0.06328
C          3.36903       -0.48125       -0.01215
O          4.28818       -1.44152       -0.03654
C          5.65309       -1.08171        0.07764
C          2.01564       -0.66606       -0.04622
C          1.35053       -1.97639       -0.09454
O          1.93942       -3.04425       -0.12763
C         -0.13304       -1.89845       -0.08671
C         -0.92161       -3.00974       -0.06408
H         -0.58445       -4.03708       -0.06518
S         -2.58142       -2.59256       -0.03026
H         -2.73856        1.19080       -1.70721
H         -6.28072        0.58336        1.70343
H          2.14151        4.89651        0.25367
H          3.40473        3.94870       -0.57712
H          3.21027        3.82702        1.20408
H          6.20847       -2.01823        0.04500
H          5.84750       -0.57257        1.02934
H          5.96421       -0.44312       -0.75848
