35
COMP56_000010.log	Energy: -1027122.9530997
C         -0.93586       -0.22553       -0.22689
C          0.50948        0.03203       -0.20049
C          1.39118       -1.01675        0.10303
C          2.75380       -0.78090        0.11055
C          3.88578       -1.73749        0.40727
H          3.80004       -2.17200        1.41088
H          3.90705       -2.57381       -0.30244
C          5.10641       -0.85556        0.27335
C          6.44597       -1.17614        0.43523
C          7.40490       -0.17918        0.25608
H          8.45734       -0.41528        0.38195
C          7.02522        1.12084       -0.08141
C          5.68158        1.44678       -0.24527
C          4.72530        0.45216       -0.06562
C          3.26126        0.49832       -0.16534
C          2.39569        1.54638       -0.45977
C          1.02704        1.30580       -0.47930
C         -1.58175       -1.37909       -0.58805
H         -1.08347       -2.27192       -0.94685
N         -2.94472       -1.36503       -0.51306
C         -3.36610       -0.20493       -0.09500
S         -2.11812        0.95627        0.24242
C         -4.77016        0.12597        0.09065
S         -6.01682       -1.04520       -0.22828
C         -7.18185        0.13779        0.23014
H         -8.24107       -0.07617        0.21759
C         -6.56029        1.29851        0.58049
H         -7.06256        2.20025        0.90794
N         -5.19325        1.28836        0.50030
H          0.99684       -1.99843        0.35119
H          6.74729       -2.18695        0.69721
H          7.78508        1.88476       -0.21660
H          5.38985        2.46027       -0.50658
H          2.77601        2.54026       -0.67723
H          0.34676        2.11444       -0.73191
