34
COMP67_140001.log	Energy: -1267880.7699302
C         -3.19501        0.54532       -0.05170
C         -1.85992        0.05632        0.00576
C         -1.39753       -1.25479       -0.12785
O         -2.04655       -2.38587       -0.29553
C          0.02937       -1.28727       -0.13911
F          0.66930       -2.45010       -0.26599
C          0.66171       -0.08261       -0.01244
S         -0.51953        1.18102        0.14429
C          2.07227        0.24513        0.03994
C          3.07007       -0.65327       -0.08070
C          4.48157       -0.33087       -0.03688
C          5.12249        0.86569        0.13064
F          4.50957        2.05200        0.30212
C          6.54354        0.81065        0.11598
O          7.33894        1.89356        0.26557
C          6.98987       -0.46445       -0.06756
H          8.01620       -0.79578       -0.12025
S          5.68081       -1.57799       -0.21973
C         -4.41661       -0.10089        0.03870
C         -5.00881       -1.37911        0.30816
O         -4.52306       -2.50357        0.49354
N         -6.38018       -1.10733        0.32841
H         -7.06552       -1.82992        0.48495
C         -6.65218        0.23592        0.11243
H         -7.66622        0.60848        0.12465
C         -5.46789        0.86906       -0.07227
C         -4.85949        2.18790       -0.26232
O         -5.31281        3.29494       -0.43299
N         -3.46796        1.89479       -0.21098
H         -2.78375        2.60268       -0.43490
H         -3.00292       -2.39698        0.02001
H          2.30938        1.29438        0.18261
H          2.82881       -1.70124       -0.22601
H          6.77778        2.67181        0.37933
