35
COMP41_300012.log	Energy: -1450939.4274438
C         -1.86513       -1.02666        0.04254
C         -0.44245       -0.71067        0.01530
C          0.62077       -1.58466       -0.02664
C          0.54541       -3.00573       -0.08163
N          0.56538       -4.16538       -0.12504
C          1.90967       -0.93350       -0.01750
C          3.17288       -1.52421       -0.05375
H          3.28051       -2.60365       -0.09606
C          4.26898       -0.67669       -0.03439
S          5.95586       -1.14897       -0.06862
C          6.45992        0.50309       -0.01189
H          7.51373        0.74776       -0.01282
C          5.42527        1.38378        0.03137
C          5.58249        2.80086        0.08498
N          5.67192        3.95603        0.12965
C          4.13016        0.73297        0.01913
C          2.86778        1.32007        0.05179
H          2.75923        2.39957        0.09088
C          1.76997        0.47128        0.03392
S          0.09471        0.95544        0.05382
C         -2.95969       -0.20115       -0.06251
C         -3.24487        1.25083       -0.24635
O         -2.51275        2.20359       -0.34604
N         -4.64675        1.31272       -0.25404
O         -5.30412        2.46432       -0.54639
C         -5.63032        3.17832        0.65033
C         -5.31828        0.08507       -0.11901
O         -6.51098       -0.07090       -0.10551
C         -4.20185       -0.88333        0.01724
C         -4.08643       -2.22265        0.19072
H         -4.86623       -2.96680        0.27819
S         -2.42945       -2.67702        0.25162
H         -6.15287        4.07107        0.30617
H         -4.71974        3.46055        1.18711
H         -6.28916        2.57839        1.28502
