42
COMP94_000000.log	Energy: -1287641.0335018
C          0.47213       -0.32420       -0.12282
C          1.93748       -0.51393       -0.08850
C          2.77875       -0.20133        0.93682
H          2.45152        0.29075        1.84418
C          4.11602       -0.58870        0.64626
S          5.63248       -0.48197        1.47821
C          6.44600       -1.25149        0.14763
H          7.51260       -1.42052        0.20594
C          5.61517       -1.57634       -0.88032
H          5.94330       -2.05997       -1.79160
C          4.27274       -1.19387       -0.58799
S          2.75683       -1.30041       -1.41937
C         -0.32680       -1.49630       -0.09373
C         -1.69513       -1.43317       -0.02726
C         -2.48659       -2.69399        0.00933
O         -1.95714       -3.78584       -0.04462
N         -3.87399       -2.55557        0.11008
C         -4.69481       -3.76424        0.15218
C         -4.55981       -1.34218        0.18841
O         -5.77088       -1.32450        0.28706
C         -3.74566       -0.09865        0.14374
C         -4.36815        1.12683        0.21489
H         -5.44827        1.16463        0.30539
C         -3.60236        2.30503        0.17452
C         -2.23083        2.24568        0.05648
C         -1.46135        3.51565        0.01960
O         -2.00124        4.60004        0.12377
N         -0.08519        3.39314       -0.15596
C          0.70935        4.61388       -0.28136
C          0.61625        2.19131       -0.31616
O          1.79216        2.22975       -0.60987
C         -0.15050        0.92012       -0.12653
C         -1.56507        0.99917       -0.01825
C         -2.34038       -0.17982        0.03241
H          0.15422       -2.46896       -0.10471
H         -4.03258       -4.61960        0.04179
H         -5.42757       -3.73874       -0.65612
H         -5.22736       -3.81691        1.10404
H         -4.07543        3.27878        0.23782
H          0.05683        5.45692       -0.06747
H          1.11588        4.69450       -1.29174
H          1.54023        4.58177        0.42518
