45
COMP98_000000.log	Energy: -1132910.2664378
C          0.50396       -0.69295       -0.32994
C          1.87151       -1.21849       -0.40107
C          2.95237       -0.85928        0.35245
O          2.93019        0.09327        1.31444
C          4.23614        0.60077        1.57228
C          5.20896       -0.54295        1.80486
O          5.32672       -1.36459        0.64845
C          4.13377       -1.60419        0.04477
C          3.93005       -2.53811       -0.92376
H          4.65634       -3.21921       -1.34173
S          2.29588       -2.52230       -1.47395
C         -0.53955       -1.65029       -0.20781
C         -1.84926       -1.28224       -0.05584
C         -2.89284       -2.33474        0.08219
O         -2.62279       -3.51830        0.03387
N         -4.20441       -1.88868        0.26933
C         -5.26778       -2.88086        0.41172
C         -4.59730       -0.55127        0.34522
O         -5.76531       -0.26255        0.51804
C         -3.53447        0.47836        0.20290
C         -3.86693        1.81273        0.27187
H         -4.90356        2.08960        0.42933
C         -2.86468        2.78722        0.14141
C         -1.55097        2.42140       -0.06179
C         -0.53098        3.48990       -0.19502
O         -0.80850        4.66882       -0.07941
N          0.76370        3.06358       -0.47526
C          1.79357        4.07607       -0.69505
C          1.17676        1.73295       -0.62938
O          2.31033        1.51993       -1.00781
C          0.17437        0.66384       -0.33639
C         -1.17868        1.05750       -0.13620
C         -2.19382        0.08514        0.00394
H          4.15349        1.22114        2.46670
H          4.55648        1.21854        0.72485
H          4.87193       -1.14934        2.65577
H          6.21116       -0.16184        2.01109
H         -0.29561       -2.70783       -0.20777
H         -4.81833       -3.86648        0.31930
H         -6.01947       -2.72894       -0.36529
H         -5.74767       -2.76970        1.38612
H         -3.10234        3.84378        0.19969
H          1.33856        5.05045       -0.53472
H          2.18256        3.99732       -1.71196
H          2.61712        3.91943        0.00466
