41
COMP59_000130.log	Energy: -1840077.5638429
C         -1.71081       -0.86305       -0.03761
C         -0.26505       -0.80428       -0.04775
C          0.52297        0.32448       -0.03075
C          1.89401        0.00242       -0.05710
C          2.14207       -1.34769       -0.09358
S          0.70030       -2.27275       -0.09721
C          3.57172       -1.56262       -0.13696
C          4.21323       -0.34679       -0.11471
C          3.19671        0.77982       -0.04924
C          3.31944        1.73023       -1.24442
O          2.48288        1.90844       -2.08871
O          4.51168        2.33985       -1.21384
C          4.73891        3.28468       -2.26202
C          3.23237        1.63616        1.22259
O          2.65396        2.69221        1.30898
O          3.91587        1.06156        2.20833
C          3.91263        1.77398        3.44844
C          5.62568       -0.45931       -0.15645
C          6.01665       -1.76729       -0.20823
H          7.02376       -2.15847       -0.25107
S          4.67647       -2.87311       -0.20739
C         -2.54585       -1.95232       -0.03533
F         -2.10172       -3.20446       -0.04266
N         -3.87482       -1.74560       -0.02605
C         -4.11403       -0.46122       -0.02100
S         -2.71071        0.55826       -0.02793
C         -5.44963        0.10441       -0.01195
S         -6.85909       -0.90742       -0.01719
C         -7.83229        0.51289       -0.00314
H         -8.91108        0.48419       -0.00098
C         -7.01716        1.60373        0.00415
F         -7.45057        2.85437        0.01569
N         -5.68229        1.39015       -0.00053
H          0.13585        1.33640       -0.00975
H          5.73552        3.68663       -2.08428
H          3.99078        4.07921       -2.22164
H          4.68954        2.79170       -3.23541
H          4.51130        1.17087        4.12932
H          2.89204        1.88124        3.82261
H          4.35409        2.76461        3.31849
H          6.31285        0.37685       -0.15068
