52
COMP82_110002.log	Energy: -1634391.0959701
C         -0.93194        0.50497        0.18785
C         -2.39388        0.60200        0.21623
C         -3.18012        1.67414        0.52784
F         -2.73286        2.87733        0.88844
C         -4.56982        1.40879        0.45581
F         -5.47811        2.34370        0.73725
C         -4.87584        0.13035        0.08585
S         -3.40269       -0.75973       -0.18662
C         -6.18748       -0.45682       -0.08583
S         -7.66355        0.43729        0.17037
C         -8.64557       -0.92466       -0.22706
H         -9.72326       -0.86079       -0.21062
C         -7.88351       -2.00227       -0.53770
F         -8.34500       -3.19942       -0.88558
C         -6.48963       -1.73672       -0.45758
F         -5.57725       -2.67067       -0.72837
C         -0.29215       -0.73202        0.33763
C          1.09318       -0.85415        0.29554
C          1.88615        0.27919        0.11152
C          3.33231        0.53912       -0.06646
C          3.42750        2.02512       -0.39011
O          4.37470        2.72714       -0.67489
N          2.14828        2.51071       -0.23287
O          1.78725        3.75552       -0.66213
C          2.01526        4.72077        0.36793
C          1.21155        1.50686       -0.03606
C         -0.15665        1.65820       -0.00656
C          4.42160       -0.27313        0.04069
C          4.33183       -1.69385        0.58694
O          3.39531       -2.31245        1.05015
N          5.60160       -2.20231        0.47881
O          5.97480       -3.37993        1.05782
C          5.66441       -4.47715        0.19539
C          6.52804       -1.27045        0.02954
C          7.88395       -1.46408       -0.13669
C          8.61967       -0.39332       -0.64457
H          9.69024       -0.50344       -0.78831
C          7.99284        0.80512       -0.97087
C          6.62006        0.97831       -0.78900
C          5.85635       -0.06647       -0.26460
H         -0.88126       -1.62724        0.51187
H          1.55060       -1.82206        0.42518
H          1.64560        5.66056       -0.04441
H          3.08364        4.79924        0.58510
H          1.45591        4.45960        1.27244
H         -0.60295        2.63219       -0.15698
H          6.05300       -5.35708        0.70967
H          6.15960       -4.35748       -0.77414
H          4.58260       -4.56550        0.06519
H          8.34303       -2.41013        0.12611
H          8.57657        1.62730       -1.37174
H          6.15109        1.91697       -1.03819
