37
COMP41_400013.log	Energy: -1500726.8823656
C         -1.19498       -1.37751       -0.20049
C          0.15954       -0.86680       -0.13147
C          1.25653       -1.51775        0.36869
O          1.31136       -2.73593        0.95090
C          2.48236       -0.77985        0.22925
C          3.75901       -1.17077        0.63399
H          3.91299       -2.12983        1.11671
C          4.79999       -0.28956        0.39174
S          6.49017       -0.52268        0.78781
C          6.89197        1.04234        0.11518
H          7.91933        1.38241        0.12877
C          5.81645        1.69926       -0.37787
O          5.77328        2.92101       -0.96377
C          4.58237        0.96167       -0.23670
C          3.30590        1.35329       -0.63397
H          3.14949        2.31573       -1.10908
C          2.26290        0.46860       -0.39700
S          0.57671        0.72468       -0.77177
C         -2.41445       -0.75027       -0.15067
C         -2.91978        0.63141        0.01901
O         -2.32237        1.67206        0.08447
N         -4.34511        0.49209        0.03399
C         -5.26213        1.57098        0.11912
O         -6.28630        1.62217       -0.50458
O         -4.82381        2.47432        0.98710
C         -5.62345        3.65488        1.08333
C         -4.78144       -0.85305       -0.14741
O         -5.91826       -1.23793       -0.15092
C         -3.52357       -1.62578       -0.26235
C         -3.20021       -2.93328       -0.40301
H         -3.84930       -3.79332       -0.49054
S         -1.48122       -3.09955       -0.44007
H          0.42592       -3.03431        1.20155
H          6.66135        3.29636       -0.98999
H         -5.08854        4.30717        1.77164
H         -6.61501        3.41150        1.47153
H         -5.72437        4.12808        0.10414
