40
COMP26_000100.log	Energy: -951094.0056284
C         -2.02800       -0.58833       -0.03157
C         -0.55720       -0.69434       -0.16453
C          0.27021        0.29917        0.37730
C          1.64162        0.19036        0.24235
C          2.71363        1.14752        0.74112
C          2.56139        2.53241        0.08981
C          2.68532        1.27090        2.27325
C          3.97740        0.44616        0.26420
C          5.29759        0.83876        0.42438
C          6.31081        0.03487       -0.09887
H          7.34907        0.32978        0.02160
C          6.00290       -1.14653       -0.77439
C          4.67811       -1.54421       -0.93810
C          3.67000       -0.74145       -0.41477
C          2.21030       -0.90002       -0.42857
C          1.39975       -1.89130       -0.97010
C          0.02049       -1.78245       -0.83325
C         -2.73182        0.64804       -0.26141
N         -2.17411        1.80248       -0.62152
S         -3.38242        2.88234       -0.76753
N         -4.65712        1.94301       -0.38734
C         -4.16735        0.73278       -0.12662
C         -4.93527       -0.40849        0.24278
H         -6.01131       -0.35944        0.34858
C         -4.24709       -1.55609        0.45150
F         -4.87055       -2.67929        0.80348
C         -2.82063       -1.64419        0.31908
F         -2.30098       -2.84537        0.58117
H         -0.16839        1.14746        0.89259
H          1.60814        2.98963        0.37660
H          2.58969        2.45425       -1.00108
H          3.36935        3.19964        0.41003
H          1.74077        1.71509        2.60641
H          3.50163        1.91300        2.62224
H          2.79186        0.29034        2.74684
H          5.54428        1.75862        0.94881
H          6.80334       -1.76143       -1.17502
H          4.44155       -2.46542       -1.46343
H          1.82809       -2.73976       -1.49586
H         -0.61992       -2.54718       -1.25909
