36
COMP47_300000.log	Energy: -1404532.5005570
C          2.59067       -0.80888       -0.00826
C          1.23355       -0.29491        0.00546
C          0.84849        1.02067        0.02958
H          1.55410        1.84403        0.04233
C         -0.56396        1.17863        0.03626
C         -1.17674        2.46705        0.06586
N         -1.67661        3.51371        0.08901
C         -1.26408       -0.02051        0.01622
S         -0.15086       -1.34444       -0.00882
C         -2.68253       -0.32746        0.01311
C         -3.67744        0.58148       -0.01523
C         -5.09900        0.28462       -0.01989
C         -5.80573       -0.90887        0.02038
C         -5.20450       -2.20049        0.08512
N         -4.71955       -3.25345        0.13728
C         -7.22285       -0.73142       -0.00663
H         -7.92538       -1.55487        0.01782
C         -7.57857        0.58057       -0.06601
H         -8.57587        0.99634       -0.09756
S         -6.20644        1.61422       -0.08934
C          3.78603       -0.13612       -0.00475
C          4.26888        1.26774        0.01192
O          3.65347        2.31242        0.03041
N          5.66556        1.17331        0.00225
C          6.54453        2.32326        0.01220
C          6.14523       -0.14298       -0.01841
O          7.31171       -0.45343       -0.02937
C          4.92222       -0.98571       -0.02267
C          4.63075       -2.30831       -0.03997
H          5.30014       -3.15709       -0.05544
S          2.91652       -2.52976       -0.03420
H         -2.92259       -1.38623        0.03288
H         -3.43456        1.63940       -0.04005
H          5.92007        3.21689        0.03478
H          7.16945        2.32778       -0.88433
H          7.18997        2.29649        0.89355
