34
COMP49_000001.log	Energy: -1288824.0602802
C          1.94889       -0.72359        0.00368
C          0.52822       -0.45698        0.00368
C         -0.08477        0.77970        0.00583
C         -1.48961        0.67301        0.00249
C         -1.93336       -0.63107       -0.00192
S         -0.64723       -1.76385       -0.00233
C         -3.37753       -0.63530       -0.00230
C         -3.82167        0.66677        0.00140
C         -2.65806        1.64531        0.00529
C         -2.65733        2.51429        1.27412
C         -2.65760        2.52601       -1.25496
C         -5.23769        0.76063       -0.00079
C         -5.82559       -0.47395       -0.00649
H         -6.88194       -0.70548       -0.00871
S         -4.66940       -1.76936       -0.00935
C          3.01619        0.14364        0.00122
C          3.25080        1.60677       -0.00480
O          2.48079        2.54274       -0.00633
N          4.64633        1.73610       -0.01036
H          5.10239        2.63727       -0.01333
C          5.35387        0.52743       -0.00466
O          6.55464        0.41157       -0.00627
C          4.28337       -0.50335        0.00152
C          4.22272       -1.85560        0.00494
H          5.02597       -2.57885        0.00529
S          2.56922       -2.36467        0.00842
H          0.48416        1.70333        0.00821
H         -2.65873        1.89150        2.17347
H         -3.54306        3.15866        1.29629
H         -1.76892        3.15455        1.29634
H         -2.65627        1.91193       -2.16032
H         -1.77129        3.16925       -1.27027
H         -3.54540        3.16771       -1.27234
H         -5.80121        1.68657        0.00135
