42
COMP61_000000.log	Energy: -1146931.7078358
C          2.14679       -0.72315       -0.00785
C          0.70070       -0.68199       -0.00578
C         -0.00210        0.48874       -0.01099
H          0.49865        1.45211       -0.01670
C         -1.42256        0.31191       -0.00627
C         -2.41401        1.30632       -0.01005
C         -2.10293        2.77787       -0.01802
C         -3.72641        0.84718       -0.00343
S         -5.14697        1.87391       -0.00704
C         -6.18778        0.48052        0.00388
H         -7.26067        0.62084        0.00456
C         -5.52020       -0.69342        0.00992
H         -6.02221       -1.65296        0.01541
C         -4.08512       -0.52813        0.00688
C         -3.09276       -1.51954        0.01195
C         -3.39181       -2.99400        0.02110
C         -1.77956       -1.06056        0.00409
S         -0.36481       -2.08823        0.00529
C          2.99711        0.36505       -0.00877
C          3.02934        1.81540        0.00065
O          2.16048        2.67918        0.00253
N          4.41870        2.11283        0.00861
C          4.92436        3.46668        0.02644
C          5.17833        0.96294        0.00701
H          6.25889        1.01816        0.01516
C          4.34605       -0.10976       -0.00548
C          4.32302       -1.56259       -0.00671
O          5.19748       -2.40356       -0.00658
N          2.92700       -1.87305       -0.00811
C          2.50283       -3.25699       -0.01254
H         -1.03033        2.97714       -0.04864
H         -2.50971        3.26279        0.87739
H         -2.55975        3.26382       -0.88838
H         -4.46219       -3.19911        0.07661
H         -2.91550       -3.48193        0.88003
H         -3.00538       -3.47618       -0.88494
H          4.05988        4.13218        0.00204
H          5.55286        3.66132       -0.84803
H          5.49880        3.65874        0.93808
H          3.41818       -3.85165       -0.03630
H          1.90326       -3.48821       -0.89733
H          1.94035       -3.50633        0.89177
