46
COMP46_000003.log	Energy: -1029214.4802371
C         -1.01344        1.81764        0.09968
C          0.41796        1.51415       -0.00379
C          0.88002        0.22101        0.28510
C          2.22798       -0.05696        0.17206
C          2.92803       -1.38636        0.40239
C          2.75279       -1.86880        1.85162
C          2.41075       -2.45057       -0.58115
C          4.37294       -1.00940        0.11025
C          5.50341       -1.81141        0.15462
C          6.74351       -1.25040       -0.15141
H          7.63636       -1.86794       -0.11932
C          6.84940        0.09724       -0.49821
C          5.71689        0.90607       -0.54694
C          4.48153        0.34398       -0.24175
C          3.13937        0.93643       -0.20903
C          2.69448        2.22419       -0.49140
C          1.33726        2.50273       -0.39229
C         -2.12142        1.00654        0.03952
C         -2.42020       -0.42732       -0.18749
O         -1.68579       -1.35979       -0.39606
N         -3.84578       -0.50996       -0.15108
C         -4.59267       -1.69750       -0.35861
O         -5.61036       -1.73954       -0.99376
O         -4.01374       -2.71821        0.26361
C         -4.64052       -3.98444        0.04870
C         -4.47897        0.75269        0.05713
O         -5.66039        0.94452        0.15014
C         -3.35157        1.70067        0.17431
C         -3.22491        3.03807        0.35258
H         -3.99588        3.78619        0.47293
S         -1.55309        3.46270        0.36335
H          0.17893       -0.55335        0.57300
H          1.69656       -2.06816        2.06294
H          3.11262       -1.11815        2.56182
H          3.31109       -2.79664        2.01724
H          1.34282       -2.63343       -0.42134
H          2.94635       -3.39592       -0.43996
H          2.55193       -2.12571       -1.61631
H          5.42899       -2.86229        0.42267
H          7.82271        0.51873       -0.73063
H          5.80186        1.95527       -0.81630
H          3.38761        3.00167       -0.79873
H          0.98594        3.50022       -0.64196
H         -4.00722       -4.70843        0.55896
H         -4.69679       -4.20554       -1.01943
H         -5.64755       -3.98522        0.47183
