56
COMP91_000002.log	Energy: -1527642.4110234
C         -0.50112       -0.08601       -0.00568
C          0.97761       -0.11602        0.04897
C          1.79759       -0.70223       -0.85192
H          1.42617       -1.13695       -1.77237
C          3.18984       -0.66475       -0.47474
C          4.29674       -1.16150       -1.17539
C          4.19304       -1.83267       -2.51770
C          5.53298       -0.99454       -0.55715
S          7.06602       -1.52788       -1.21905
C          7.91275       -0.92051        0.17556
H          8.98730       -1.03166        0.23432
C          7.10101       -0.34646        1.08892
H          7.46935        0.07823        2.01471
C          5.70865       -0.36618        0.70243
C          4.60015        0.13467        1.40084
C          4.70561        0.80515        2.74355
C          3.36530       -0.03395        0.78349
S          1.83257        0.48603        1.45447
C         -1.15318       -1.33431        0.15473
C         -2.52050       -1.43504        0.17064
C         -3.14532       -2.77526        0.34324
O         -2.51457       -3.80409        0.42489
N         -4.54445       -2.76766        0.39131
O         -5.13969       -3.96478        0.68239
C         -5.44463       -4.68729       -0.51201
C         -5.40744       -1.67112        0.26615
O         -6.60914       -1.80830        0.28939
C         -4.73216       -0.35659        0.08849
C         -5.50009        0.77889       -0.02994
H         -6.58024        0.68948        0.01097
C         -4.88073        2.02926       -0.19802
C         -3.50843        2.12786       -0.25413
C         -2.90391        3.47190       -0.44413
O         -3.54614        4.49585       -0.50729
N         -1.51249        3.46936       -0.54657
O         -0.94602        4.65660       -0.92420
C         -0.52512        5.40533        0.21655
C         -0.63054        2.37758       -0.47348
O          0.55346        2.54121       -0.64527
C         -1.27012        1.05955       -0.17634
C         -2.69008        0.97593       -0.13478
C         -3.32000       -0.27650        0.04404
H          3.15749       -1.98178       -2.82852
H          4.67948       -2.81509       -2.49954
H          4.69150       -1.23569       -3.29088
H          5.74056        1.01927        3.01660
H          4.27445        0.17503        3.53109
H          4.15928        1.75569        2.74801
H         -0.55682       -2.23185        0.27991
H         -5.92298       -5.60281       -0.16316
H         -4.52811       -4.93049       -1.05754
H         -6.13957       -4.11934       -1.13742
H         -5.46906        2.93598       -0.28793
H         -0.09135        6.31543       -0.19871
H          0.23505        4.85520        0.77913
H         -1.38203        5.65607        0.84907
