65
COMP99_000033.log	Energy: -1882558.6270716
C         -0.76796        0.01762        0.13829
C          0.68441       -0.18194        0.32124
C          1.53686       -0.80690       -0.54803
C          2.84968       -0.86826       -0.02732
C          2.97116       -0.32350        1.22599
S          1.48039        0.29030        1.80617
C          4.34175       -0.46498        1.67077
C          5.07571       -1.07424        0.68175
C          4.19440       -1.36936       -0.51895
C          4.17762       -2.85062       -0.89853
O          3.20006       -3.54946       -0.94608
O          5.41990       -3.26142       -1.17997
C          5.52985       -4.61831       -1.61344
C          4.54600       -0.57311       -1.78463
O          4.24581       -0.94161       -2.89410
O          5.14463        0.58016       -1.50228
C          5.36942        1.44111       -2.62147
C          6.44229       -1.24093        1.02098
C          6.70624       -0.74960        2.26777
H          7.65156       -0.74412        2.79259
S          5.30114       -0.07773        3.03905
C         -1.57105       -1.15147        0.14593
C         -2.93509       -1.08574        0.02408
C         -3.73035       -2.34136        0.04890
O         -3.24543       -3.44520        0.16401
N         -5.11391       -2.18044       -0.07154
C         -5.90629       -3.39856       -0.08898
O         -6.21220       -3.96505       -1.09574
O         -6.20582       -3.73994        1.15101
C         -6.98203       -4.93770        1.27303
C         -5.81935       -0.97812       -0.17178
O         -7.02998       -0.97659       -0.22694
C         -4.99063        0.25478       -0.20151
C         -5.61014        1.47735       -0.32277
H         -6.69147        1.51550       -0.39732
C         -4.83920        2.65152       -0.35069
C         -3.46663        2.58688       -0.26066
C         -2.69380        3.85095       -0.29859
O         -3.19694        4.95276       -0.35325
N         -1.31011        3.69693       -0.27745
C         -0.52283        4.90906       -0.42659
O         -0.24505        5.38438       -1.48738
O         -0.19525        5.36302        0.76973
C          0.60396        6.55108        0.76389
C         -0.57871        2.50620       -0.17630
O          0.62985        2.55527       -0.23389
C         -1.38071        1.25596       -0.02685
C         -2.79863        1.34239       -0.13153
C         -3.58133        0.16591       -0.10206
H          1.23690       -1.19020       -1.51543
H          6.59245       -4.78541       -1.78507
H          4.96441       -4.76558       -2.53624
H          5.15242       -5.29709       -0.84540
H          5.83056        2.33701       -2.20871
H          4.42202        1.68408       -3.10763
H          6.03422        0.96177       -3.34369
H          7.18432       -1.70231        0.38226
H         -1.09425       -2.11899        0.26417
H         -7.12154       -5.08383        2.34261
H         -6.44372       -5.77958        0.83298
H         -7.94320       -4.81226        0.77019
H         -5.30826        3.62483       -0.44565
H          0.77887        6.78543        1.81244
H          0.06678        7.36247        0.26836
H          1.54726        6.36441        0.24635
