62
COMP87_320003.log	Energy: -2268733.1441050
C          0.05037       -0.60688        0.26932
C          1.50675       -0.76670        0.40979
C          2.23157       -1.78304        0.97202
Cl         1.54449       -3.17508        1.72890
C          3.64697       -1.57710        0.93438
C          4.57468       -2.51111        1.47892
N          5.34568       -3.25971        1.91577
C          3.99904       -0.38161        0.33065
S          2.57858        0.45887       -0.18220
C          5.28621        0.23961        0.07214
C          6.48916       -0.29287        0.36223
C          7.77753        0.32855        0.10761
C          8.13113        1.53970       -0.46607
C          7.20624        2.50160       -0.96354
N          6.44091        3.27616       -1.36351
C          9.55029        1.73084       -0.50897
Cl        10.28226        3.14772       -1.16942
C         10.25054        0.69177        0.01845
H         11.32318        0.59645        0.10343
S          9.19718       -0.54280        0.57933
C         -0.55854        0.60658        0.60406
C         -1.92585        0.78726        0.45329
C         -2.71437       -0.25300       -0.04296
C         -4.16139       -0.42645       -0.21908
C         -4.34101       -1.84541       -0.69796
O         -5.35236       -2.38234       -1.07360
N         -3.05180       -2.42568       -0.74719
C         -2.73686       -3.73129       -1.15372
O         -1.60854       -4.09644       -1.38621
O         -3.81392       -4.49901       -1.22589
C         -3.56802       -5.83731       -1.66402
C         -2.08468       -1.47546       -0.34885
C         -0.72069       -1.66840       -0.21660
C         -5.21408        0.42862       -0.06101
C         -5.03287        1.92932       -0.02896
O         -4.02012        2.55683       -0.21238
N         -6.31621        2.49157        0.13979
C         -6.62799        3.85749        0.20279
O         -7.75762        4.28229        0.13927
O         -5.54439        4.60465        0.36018
C         -5.78779        6.01215        0.40232
C         -7.28580        1.46070        0.20023
C         -8.64922        1.59097        0.41318
C         -9.40298        0.42357        0.51150
H        -10.47370        0.50332        0.67258
C         -8.80547       -0.82943        0.41378
C         -7.43875       -0.94637        0.19319
C         -6.65772        0.20659        0.06513
H          5.23023        1.21656       -0.39822
H          6.54458       -1.27089        0.83011
H          0.04074        1.41964        1.00215
H         -2.36977        1.73618        0.70816
H         -4.54956       -6.30640       -1.70584
H         -2.92011       -6.35834       -0.95568
H         -3.09859       -5.83677       -2.64995
H         -0.26819       -2.60708       -0.49849
H         -4.80490        6.46640        0.51653
H         -6.43099        6.26461        1.24830
H         -6.26109        6.34650       -0.52338
H         -9.10590        2.56582        0.49665
H         -9.40753       -1.72782        0.50219
H         -6.98805       -1.92172        0.10182
