39
COMP21_300120.log	Energy: -1587641.2890992
C         -2.63641       -0.53542       -0.22992
C         -1.17442       -0.39276       -0.19805
C         -0.47142        0.77295       -0.33539
C         -1.11053        2.01914       -0.61278
N         -1.65167        3.00920       -0.87946
C          0.95964        0.58628       -0.22473
C          1.98899        1.52904       -0.31934
O          1.74233        2.85248       -0.51374
C          1.66854        3.25135       -1.88328
C          3.29149        1.07058       -0.15795
S          4.72166        2.07386       -0.21255
C          5.72841        0.69627        0.05658
H          6.80283        0.81281        0.10708
C          5.04150       -0.47077        0.19497
C          5.69806       -1.71619        0.43530
N          6.25301       -2.71082        0.65213
C          3.60697       -0.28717        0.08118
C          2.57843       -1.22966        0.17210
O          2.82368       -2.55429        0.36283
C          2.91114       -2.95374        1.73121
C          1.27584       -0.77086        0.01281
S         -0.14835       -1.77408        0.06897
C         -3.48006        0.22428        0.65113
N         -3.06098        1.06887        1.58826
S         -4.39600        1.67478        2.28966
N         -5.54836        0.88589        1.45592
C         -4.91343        0.11176        0.57748
C         -5.52866       -0.77205       -0.35567
H         -6.60514       -0.86771       -0.42122
C         -4.70461       -1.49050       -1.15646
F         -5.18302       -2.34323       -2.05859
C         -3.27590       -1.37456       -1.09611
F         -2.59204       -2.12292       -1.95644
H          1.42470        4.31327       -1.87270
H          0.87898        2.70567       -2.40995
H          2.62931        3.09135       -2.38653
H          3.13191       -4.02070        1.71786
H          1.96214       -2.77322        2.24961
H          3.72044       -2.42439        2.24473
