34
COMP57_220300.log	Energy: -2723597.1404406
C          2.20006       -0.16133       -0.44227
C          0.84854        0.37557       -0.45909
C          0.42525        1.65078       -0.74158
Cl         1.46778        2.94008       -1.20790
C         -0.98683        1.80516       -0.63999
Cl        -1.78807        3.29719       -0.96208
C         -1.64148        0.65029       -0.28187
S         -0.50251       -0.63238       -0.04394
C         -3.07070        0.47907       -0.10538
C         -3.67835       -0.71397        0.02393
C         -5.09437       -0.96833        0.22456
C         -6.16681       -0.15261        0.50665
Cl        -6.08704        1.55658        0.72470
C         -7.39977       -0.86607        0.62981
Cl        -8.90915       -0.10627        0.97983
C         -7.25931       -2.20685        0.44475
H         -8.03432       -2.95829        0.48350
S         -5.62912       -2.62160        0.11703
C          2.65173       -1.36694       -0.94528
C          1.83905       -2.29941       -1.66854
N          1.17436       -3.04807       -2.25143
N          3.97394       -1.65112       -0.74602
C          4.54633       -0.68143       -0.09544
S          3.52059        0.65068        0.32857
C          5.95852       -0.68406        0.25761
S          6.99818       -2.00534       -0.19193
C          8.29280       -1.19293        0.58003
H          9.29124       -1.60504        0.61614
C          7.85631       -0.00730        1.10918
C          8.69756        0.90682        1.82380
N          9.39964        1.62677        2.39807
N          6.52779        0.27681        0.92313
H         -3.64118        1.39999       -0.09470
H         -3.07095       -1.61673       -0.03920
