32
COMP57_200100.log	Energy: -2155614.1759442
C         -1.85742       -0.08180       -0.00155
C         -0.50532        0.43321       -0.01841
C         -0.11785        1.74721       -0.05677
H         -0.80093        2.58797       -0.08025
C          1.29038        1.89260       -0.06241
Cl         2.04072        3.45545       -0.11038
C          1.99171        0.71033       -0.02979
S          0.87660       -0.62471        0.01134
C          3.43009        0.54532       -0.02823
C          4.06632       -0.64069       -0.02090
C          5.49982       -0.87537       -0.01625
C          6.59999       -0.05170        0.07004
Cl         6.54481        1.67678        0.22056
C          7.85103       -0.72873        0.03849
H          8.80391       -0.21843        0.09867
C          7.69974       -2.07658       -0.07174
H          8.47437       -2.82898       -0.11767
S          6.04339       -2.52775       -0.13616
C         -2.29777       -1.38111        0.03238
F         -1.47698       -2.42314        0.05690
N         -3.62318       -1.61084        0.04154
C         -4.26096       -0.47120        0.01417
S         -3.26021        0.94459       -0.02365
C         -5.70762       -0.36073        0.01473
S         -6.72350       -1.76519        0.05264
C         -8.09582       -0.72645        0.02936
H         -9.10991       -1.09555        0.04125
C         -7.66804        0.56662       -0.00431
F         -8.47480        1.61497       -0.02944
N         -6.33456        0.78549       -0.01313
H          3.99062        1.47283       -0.03686
H          3.46788       -1.55138       -0.02384
