45
COMP76_000001.log	Energy: -1197759.3355370
C          0.94698        1.58083        0.06398
C         -0.48051        1.27791       -0.14608
C         -1.08407        0.19989        0.51517
C         -2.42896       -0.04485        0.32165
C         -3.27340       -1.16355        0.91119
C         -2.75468       -2.53778        0.45322
C         -3.31453       -1.09039        2.44597
C         -4.63419       -0.85469        0.30420
C         -5.83274       -1.53032        0.47752
C         -6.97220       -1.06794       -0.18127
H         -7.91737       -1.58696       -0.05188
C         -6.91027        0.05731       -1.00434
C         -5.70848        0.73815       -1.18216
C         -4.57413        0.27551       -0.52325
C         -3.19506        0.77936       -0.51538
C         -2.61007        1.85807       -1.16749
C         -1.25363        2.10087       -0.97726
C          2.07013        0.77980        0.02880
C          2.11494       -0.66469       -0.32209
O          1.13633       -1.34431       -0.57680
C          3.48198       -1.24750       -0.34559
C          3.74474       -2.55380       -0.64340
H          3.02442       -3.31682       -0.90415
S          5.42805       -2.89046       -0.56018
C          5.80070       -1.27113       -0.12263
H          6.81760       -0.94980        0.05604
C          4.67211       -0.50718       -0.04423
C          4.64034        0.92958        0.30283
O          5.64028        1.57568        0.56057
C          3.27875        1.51893        0.30294
C          3.05463        2.84138        0.54240
H          3.80206        3.58997        0.76649
S          1.38775        3.21918        0.44446
H         -0.48879       -0.43484        1.16198
H         -1.74095       -2.71040        0.82991
H         -2.72631       -2.59991       -0.63849
H         -3.40297       -3.33680        0.82995
H         -2.31569       -1.25035        2.86673
H         -3.97856       -1.86308        2.84899
H         -3.67909       -0.11487        2.78215
H         -5.88840       -2.40803        1.11677
H         -7.80673        0.40507       -1.50892
H         -5.66257        1.61437       -1.82318
H         -3.19237        2.50039       -1.82163
H         -0.78018        2.92892       -1.49743
