60
COMP82_340003.log	Energy: -1737772.6921079
C          1.12138        0.47487        0.19706
C          2.58217        0.55216        0.31131
C          3.35372        1.59808        0.77405
C          2.88373        2.83598        1.29774
N          2.60758        3.87112        1.74496
C          4.75513        1.31309        0.74974
O          5.71861        2.16520        1.16045
C          5.04883        0.06064        0.27209
S          3.57748       -0.77128       -0.16192
C          6.35917       -0.53631        0.11734
S          7.83334        0.30469        0.53188
C          8.80598       -1.02015        0.07222
H          9.88260       -0.97449        0.15432
C          8.05504       -2.07280       -0.38160
C          8.55310       -3.32576       -0.84184
N          8.87067       -4.37165       -1.23164
C          6.65055       -1.79274       -0.35465
O          5.68499       -2.65273       -0.74510
C          0.45118       -0.72394        0.46798
C         -0.92759       -0.81619        0.35478
C         -1.67086        0.30041       -0.03618
C         -3.10948        0.57068       -0.13923
C         -3.21966        2.03294       -0.49672
O         -4.20946        2.65841       -0.78279
N         -1.90060        2.53561       -0.56236
C         -1.51873        3.84180       -0.90970
O         -0.39217        4.13489       -1.23237
O         -2.53010        4.69124       -0.81436
C         -2.21521        6.04041       -1.16794
C         -0.98009        1.50379       -0.27780
C          0.39583        1.61074       -0.18268
C         -4.20465       -0.23418       -0.00869
C         -4.10850       -1.73936       -0.10510
O         -3.14038       -2.40426       -0.37712
N         -5.41579       -2.24306        0.06646
C         -5.80401       -3.58984        0.02709
O         -6.95729       -3.94498       -0.04012
O         -4.76192       -4.40654        0.09483
C         -5.08428       -5.79687        0.02485
C         -6.32236       -1.16948        0.24567
C         -7.68324       -1.24236        0.49830
C         -8.36476       -0.04776        0.71957
H         -9.43261       -0.08154        0.91306
C         -7.69959        1.17441        0.70173
C         -6.33621        1.23451        0.44029
C         -5.62782        0.05525        0.18981
H          5.32347        2.99578        1.46226
H          6.07908       -3.47970       -1.05672
H          1.01232       -1.59496        0.79180
H         -1.41718       -1.75453        0.56081
H         -3.15193        6.58505       -1.06216
H         -1.85238        6.09217       -2.19668
H         -1.45435        6.44132       -0.49473
H          0.88836        2.54303       -0.41789
H         -4.12704       -6.31201        0.08566
H         -5.58558       -6.02510       -0.91824
H         -5.73179       -6.08287        0.85668
H         -8.19171       -2.19477        0.51852
H         -8.24527        2.09409        0.88557
H         -5.83314        2.18802        0.41212
