28
COMP62_120001.log	Energy: -1701720.8249663
C         -2.45286        0.58892       -0.00640
C         -1.10431        0.07807        0.05377
C         -0.68796       -1.10789        0.59570
F         -1.48757       -1.97180        1.18740
C          0.71772       -1.31132        0.52560
Cl         1.46455       -2.71655        1.17897
C          1.37568       -0.26608       -0.06779
S          0.25668        0.96344       -0.56485
C          2.80203       -0.12554       -0.33973
S          3.62595       -1.22674       -1.39996
C          5.12510       -0.40678       -1.20629
H          6.02502       -0.74469       -1.69854
C          4.98995        0.65955       -0.37684
F          5.97727        1.47885       -0.03733
C          3.66630        0.83197        0.12225
Cl         3.25960        2.10340        1.21132
C         -3.64281       -0.06728       -0.13363
C         -4.22720       -1.38892       -0.37048
O         -3.75753       -2.50046       -0.47875
N         -5.61264       -1.08662       -0.48364
H         -6.30005       -1.80445       -0.65157
C         -5.86965        0.26258       -0.37069
H         -6.87542        0.64841       -0.46790
C         -4.69682        0.91037       -0.15478
C         -4.10698        2.24256       -0.01747
O         -4.57715        3.35552        0.05627
N         -2.71543        1.95386        0.03150
H         -2.04482        2.66115        0.29492
