53
COMP89_000012.log	Energy: -1409294.6657631
C         -1.50926        0.14254        0.09679
C         -2.97386        0.14070        0.14391
C         -3.80230        1.10655        0.66591
C         -5.17118        0.77757        0.53265
C         -5.36818       -0.43500       -0.08961
S         -3.89289       -1.19332       -0.52753
C         -6.78787       -0.69018       -0.18672
C         -7.47203        0.36307        0.37769
C         -6.50051        1.39985        0.89429
H         -6.60242        1.55562        1.97506
H         -6.64303        2.37413        0.41130
C         -8.88071        0.19270        0.32266
C         -9.22386       -0.98409       -0.28210
H        -10.21619       -1.37503       -0.45978
S         -7.84218       -1.90362       -0.79359
C         -0.77344       -1.05002        0.07789
C          0.61699       -1.05898        0.02754
C          1.31935        0.14720        0.01280
C          2.73747        0.53429       -0.11846
C          2.71602        2.04778       -0.29320
O          3.59713        2.84016       -0.54836
N          1.41294        2.42123       -0.02918
O          0.95013        3.66382       -0.36890
C          1.15623        4.57711        0.70948
C          0.55348        1.32982        0.02791
C         -0.82171        1.36630        0.06204
C          3.89203       -0.18395       -0.02897
C          3.92153       -1.63200        0.44235
O          3.02527       -2.42236        0.65939
N          5.25347       -1.92311        0.60982
O          5.70845       -3.14751        0.99751
C          5.66326       -4.07364       -0.09367
C          6.09542       -0.91171        0.16593
C          7.47334       -0.94612        0.09596
C          8.10940        0.18248       -0.42211
H          9.19267        0.19680       -0.49643
C          7.36928        1.28063       -0.84932
C          5.97623        1.29413       -0.76097
C          5.30966        0.18912       -0.22983
H         -3.42487        2.00145        1.14768
H         -9.60981        0.89713        0.70566
H         -1.29545       -2.00110        0.12074
H          1.15041       -1.99636        0.01242
H          0.71256        5.51442        0.37050
H          2.22490        4.71331        0.89471
H          0.65197        4.22565        1.61595
H         -1.34465        2.31422        0.01350
H          6.10281       -4.99098        0.29975
H          6.25627       -3.70372       -0.93734
H          4.62870       -4.25252       -0.39763
H          8.02162       -1.81854        0.43273
H          7.87740        2.14628       -1.26154
H          5.41672        2.15337       -1.09590
