35
COMP21_200200.log	Energy: -2406619.3460480
C         -2.34122       -0.10921       -0.16676
C         -0.86889       -0.11330       -0.10008
C         -0.09753        0.34390        0.91305
Cl        -0.83703        0.98612        2.34785
C          1.33144        0.24846        0.67489
C          2.41640        0.61043        1.48907
C          2.26718        1.20282        2.86757
C          3.68005        0.39019        0.94440
S          5.17884        0.77135        1.77741
C          6.10991        0.19470        0.43908
H          7.19022        0.21780        0.47246
C          5.34847       -0.25788       -0.57867
Cl         6.09774       -0.89052       -2.01646
C          3.91738       -0.16606       -0.34152
C          2.83193       -0.52906       -1.15455
C          2.98116       -1.12351       -2.53234
C          1.56864       -0.30744       -0.61022
S          0.07383       -0.68863       -1.44458
C         -3.01410        1.05735       -0.65105
N         -2.42393        2.17823       -1.06476
S         -3.62242        3.18564       -1.50099
N         -4.92080        2.25747       -1.18882
C         -4.44544        1.10177       -0.72221
C         -5.21714       -0.02076       -0.31838
H         -6.29821        0.01046       -0.37561
C         -4.56075       -1.12423        0.13663
Cl        -5.49589       -2.50060        0.62926
C         -3.11734       -1.17340        0.21641
Cl        -2.35590       -2.60419        0.82358
H          1.76044        2.17123        2.83143
H          3.24004        1.35619        3.34095
H          1.68375        0.54912        3.52042
H          3.49045       -2.09051       -2.49571
H          3.56195       -0.46944       -3.18729
H          2.00832       -1.28062       -3.00480
