31
COMP21_100410.log	Energy: -1422612.8969202
C          2.18427        0.31793        0.12721
C          0.73268        0.13387        0.09855
C         -0.18350        0.95891       -0.46201
F          0.12560        2.05804       -1.15112
C         -1.55423        0.57353       -0.29032
C         -2.69846        1.22390       -0.74937
H         -2.61986        2.14742       -1.31296
C         -3.92107        0.64232       -0.45147
S         -5.51034        1.23892       -0.89439
C         -6.28073       -0.11267       -0.10190
H         -7.35644       -0.21287       -0.09400
C         -5.38363       -0.94893        0.45431
F         -5.70226       -2.06166        1.12113
C         -4.00739       -0.56454        0.28492
C         -2.86225       -1.21598        0.73979
H         -2.93930       -2.14228        1.29920
C         -1.63871       -0.63193        0.44734
S         -0.05553       -1.23374        0.88313
C          3.09530       -0.74563       -0.19532
N          2.75261       -1.98256       -0.53716
S          4.14044       -2.79897       -0.80282
N          5.22531       -1.61677       -0.49779
C          4.52258       -0.53773       -0.17203
C          5.06184        0.73596        0.17328
H          6.13596        0.88919        0.18446
C          4.17991        1.72061        0.48239
O          4.52089        2.98870        0.84155
C          2.74371        1.52268        0.47467
O          1.97386        2.56241        0.83613
H          5.48007        3.09106        0.84193
H          2.55111        3.31331        1.03934
