36
COMP57_310300.log	Energy: -1810264.2856076
C         -1.87987        0.40507       -0.00336
C         -0.49895       -0.02684        0.01320
C         -0.04833       -1.32082        0.05313
F         -0.86084       -2.37095        0.08494
C          1.35956       -1.48050        0.06154
C          1.97537       -2.76242        0.11281
N          2.48332       -3.80412        0.15236
C          2.01195       -0.25671        0.02485
S          0.87429        1.04468       -0.01511
C          3.42170        0.08474        0.01631
C          4.43177       -0.80604       -0.04145
C          5.84667       -0.48568       -0.04994
C          6.52264        0.72134        0.03927
C          5.92012        2.00320        0.17574
N          5.42030        3.04398        0.28558
C          7.93695        0.54506       -0.01608
F          8.76321        1.57985        0.05387
C          8.33571       -0.74725       -0.14228
H          9.34611       -1.12284       -0.20458
S          6.97316       -1.79188       -0.19609
C         -2.40674        1.68534       -0.03673
C         -1.63163        2.88683       -0.06264
N         -0.98686        3.85000       -0.08430
N         -3.77057        1.78333       -0.04536
C         -4.30570        0.60055       -0.01959
S         -3.19321       -0.73207        0.01745
C         -5.74225        0.37162       -0.01992
S         -6.87077        1.69659       -0.05283
C         -8.14654        0.55380       -0.03215
H         -9.18592        0.84981       -0.04270
C         -7.63912       -0.71798       -0.00274
C         -8.44793       -1.90107        0.01932
N         -9.12553       -2.84000        0.03666
N         -6.27147       -0.81581        0.00426
H          3.63710        1.14840        0.05580
H          4.20925       -1.86772       -0.09243
