38
COMP43_000030.log	Energy: -978648.6534962
C          0.69835        0.40387        0.59730
C         -0.68673        0.72121        0.19888
C         -1.63815       -0.29459        0.30912
C         -2.97671       -0.05159        0.01485
C         -4.01569       -1.12002        0.11536
O         -5.18595       -0.94902       -0.13831
O         -3.50707       -2.29082        0.51897
C         -4.44485       -3.36231        0.61791
C         -3.38560        1.22398       -0.37153
H         -4.43495        1.40046       -0.58078
C         -2.44872        2.23802       -0.48900
C         -1.09870        1.99470       -0.23257
C         -0.16816        3.14129       -0.48784
O         -0.46910        4.29981       -0.31855
O          1.00996        2.74081       -0.97832
C          1.96440        3.77773       -1.20690
C          1.50730       -0.60186        0.16544
C          1.44446       -1.69793       -0.83408
O          0.54690       -2.03443       -1.57020
N          2.69900       -2.32500       -0.75057
C          3.07684       -3.46317       -1.55916
C          3.55701       -1.76003        0.20311
O          4.67676       -2.14786        0.43841
C          2.77686       -0.64396        0.79728
C          2.95251        0.31530        1.73922
H          3.81118        0.50812        2.36742
S          1.52663        1.28847        1.85648
H         -1.32875       -1.28138        0.63143
H         -3.86625       -4.22973        0.93321
H         -4.91702       -3.54580       -0.34996
H         -5.21752       -3.12665        1.35361
H         -2.74484        3.23530       -0.79585
H          2.84884        3.27897       -1.60101
H          2.19734        4.29011       -0.27008
H          1.57670        4.50251       -1.92619
H          2.21139       -3.73970       -2.16262
H          3.36991       -4.29871       -0.91877
H          3.91624       -3.20583       -2.21044
