44
COMP77_310000.log	Energy: -1865190.6751968
C         -1.61017        1.38377        0.54108
C         -0.29062        0.77377        0.60591
C          0.08596       -0.34610        1.28894
F         -0.73414       -1.06792        2.03105
C          1.46392       -0.67994        1.17460
C          2.02620       -1.80973        1.83273
N          2.49410       -2.72804        2.36475
C          2.15850        0.22532        0.38663
S          1.08907        1.45037       -0.19986
C          3.55503        0.30385        0.00202
C          4.49737       -0.61653        0.28561
C          5.89738       -0.53337       -0.08831
C          6.61702        0.42982       -0.77848
C          6.09129        1.64000       -1.31106
N          5.65623        2.62466       -1.74321
C          7.99395        0.07680       -0.90697
F          8.85154        0.86995       -1.53667
C          8.32379       -1.11073       -0.33856
H          9.29528       -1.58061       -0.30837
S          6.93882       -1.83588        0.37725
C         -2.82601        0.81540        0.23383
C         -3.05103       -0.58905       -0.20716
O         -2.14129       -1.39156       -0.34217
C         -4.46169       -0.92888       -0.48473
C         -4.88088       -2.17737       -0.87008
C         -4.07596       -3.41817       -1.09829
S         -6.59765       -2.18186       -1.08350
C         -6.76991       -0.51401       -0.66149
C         -8.11063        0.15074       -0.65643
C         -5.54163        0.02005       -0.36707
C         -5.31921        1.42191        0.02547
O         -6.20887        2.25392        0.11138
C         -3.90211        1.76065        0.31298
C         -3.48995        3.01318        0.66116
H         -4.11408        3.88953        0.77081
S         -1.79941        3.07071        0.92040
H          3.82322        1.19303       -0.56092
H          4.22705       -1.51035        0.84004
H         -3.53112       -3.68990       -0.18977
H         -3.32487       -3.24728       -1.87433
H         -4.71143       -4.25652       -1.39574
H         -8.90985       -0.56079       -0.87949
H         -8.13743        0.95689       -1.39533
H         -8.30131        0.61083        0.31666
