49
COMP65_000003.log	Energy: -942422.3254755
C          0.99528        1.11752       -0.05170
C         -0.43437        0.84916       -0.16888
C         -0.92015       -0.34844        0.35755
C         -2.26816       -0.63624        0.18489
N         -2.96961       -1.75708        0.58356
C         -2.41135       -2.90009        1.26666
C         -4.29340       -1.59751        0.21778
C         -5.37450       -2.45756        0.42189
C         -6.61187       -2.05875       -0.06193
H         -7.46969       -2.70871        0.08282
C         -6.78191       -0.83486       -0.72845
C         -5.70650        0.01732       -0.92451
C         -4.44914       -0.36077       -0.44842
C         -3.14377        0.25503       -0.47476
C         -2.63726        1.44290       -1.00789
C         -1.29377        1.73332       -0.85990
C          2.03553        0.23219        0.00760
C          2.31739       -1.19840        0.01701
O          1.60680       -2.16940        0.14375
N          3.76545       -1.22973       -0.11623
C          4.62703       -2.33503       -0.16018
O          5.82427       -2.21145       -0.26904
O          3.96898       -3.48036       -0.07263
C          4.78986       -4.64954       -0.11985
C          4.29105        0.06533       -0.19918
H          5.35417        0.19675       -0.33470
C          3.27641        0.94482       -0.10708
C          2.99330        2.37728       -0.19150
O          3.70200        3.34773       -0.22832
N          1.54554        2.40905       -0.15270
C          0.86675        3.62215        0.11959
O          1.00999        4.62938       -0.51635
O          0.07808        3.47185        1.18462
C         -0.79761        4.56862        1.44914
H         -0.25156       -1.03412        0.86337
H         -1.35286       -2.99568        1.01397
H         -2.91847       -3.80861        0.93178
H         -2.51538       -2.81307        2.35431
H         -5.25877       -3.40233        0.94327
H         -7.76597       -0.55672       -1.09206
H         -5.83815        0.96559       -1.43768
H         -3.28585        2.12483       -1.54939
H         -0.89480        2.63244       -1.31862
H          4.09875       -5.48430       -0.01492
H          5.51509       -4.64187        0.69659
H          5.31941       -4.70542       -1.07350
H         -1.33041        4.30001        2.35993
H         -1.50056        4.69337        0.62097
H         -0.22863        5.48964        1.58801
