42
COMP72_040002.log	Energy: -1765119.7355587
C          0.20852       -1.19616       -0.36674
C          1.44968       -0.43559       -0.36369
C          1.71176        0.80885       -0.87308
H          0.94908        1.43838       -1.30889
C          3.07152        1.17541       -0.74120
O          3.59715        2.35522       -1.16905
C          3.86452        0.22311       -0.13929
S          2.89717       -1.16100        0.28486
C          5.27948        0.30720        0.15264
S          6.24215        1.71142       -0.23867
C          7.66284        0.99044        0.40517
H          8.60073        1.52799        0.38552
C          7.43420       -0.25815        0.89897
H          8.19610       -0.88562        1.34948
C          6.07217       -0.64527        0.75270
O          5.55111       -1.83557        1.15470
C         -1.12601       -0.82203       -0.29965
C         -1.67003        0.55624       -0.19773
O         -0.98472        1.56470       -0.28233
C         -3.13273        0.63250        0.00151
C         -3.81670        1.80331        0.18124
O         -3.29157        3.02498        0.21793
C         -4.14129        4.12231        0.49849
S         -5.54962        1.53387        0.35971
C         -5.32069       -0.20159        0.17730
O         -6.33648       -1.05823        0.21774
C         -7.64458       -0.55358        0.41595
C         -4.00492       -0.52393       -0.00023
C         -3.48716       -1.88774       -0.17017
O         -4.18370       -2.88900       -0.19462
C         -2.00794       -1.96074       -0.29230
C         -1.35621       -3.15293       -0.36923
H         -1.81133       -4.13351       -0.37505
S          0.33705       -2.93530       -0.45919
H          2.87827        2.95013       -1.41140
H          6.24928       -2.38166        1.53232
H         -3.49744        5.00114        0.50419
H         -4.61833        4.01072        1.47981
H         -4.90764        4.23671       -0.27836
H         -8.30208       -1.42204        0.40421
H         -7.92949        0.13179       -0.39179
H         -7.72817       -0.04466        1.38406
