45
COMP41_100032.log	Energy: -1745614.9255510
C          2.26739       -1.20039       -0.05149
C          0.90041       -0.71635       -0.00758
C         -0.22726       -1.47255       -0.09844
F         -0.16999       -2.79308       -0.28594
C         -1.46748       -0.75215       -0.05908
C         -2.79190       -1.21732       -0.11086
C         -3.19154       -2.65208       -0.01086
O         -4.13136       -3.12783       -0.60735
O         -2.45148       -3.31946        0.87281
C         -2.76127       -4.70748        1.01226
C         -3.80465       -0.26580       -0.21160
S         -5.51082       -0.60089       -0.41167
C         -5.87156        1.09887       -0.37631
H         -6.88399        1.45296       -0.51003
C         -4.77457        1.86787       -0.23319
F         -4.80999        3.19678       -0.26673
C         -3.54257        1.12589       -0.11219
C         -2.22966        1.58354        0.05737
C         -1.94035        3.01189        0.40080
O         -2.58821        3.67250        1.17213
O         -0.82900        3.43930       -0.21153
C         -0.38225        4.74822        0.15350
C         -1.20181        0.63848        0.01423
S          0.51046        0.99246        0.09251
C          3.45710       -0.52039        0.02932
C          3.91653        0.88503        0.17855
O          3.31058        1.92255        0.28950
N          5.31790        0.77719        0.14232
O          6.11581        1.84386        0.41077
C          6.50012        2.50231       -0.79882
C          5.83297       -0.52689        0.03559
O          6.99876       -0.82521        0.00817
C          4.60495       -1.35571       -0.05132
C          4.32209       -2.67244       -0.19210
H          5.00397       -3.50759       -0.27498
S          2.61503       -2.91471       -0.22774
H         -2.05376       -5.08889        1.74689
H         -2.63869       -5.22100        0.05596
H         -3.78843       -4.83504        1.36097
H          0.56795        4.88311       -0.36042
H         -0.24861        4.81694        1.23500
H         -1.11017        5.49547       -0.16991
H          7.13336        3.32925       -0.47593
H          5.61928        2.88674       -1.32178
H          7.07011        1.82369       -1.44037
