34
COMP47_220000.log	Energy: -2442362.2496718
C         -3.37077        0.60093        0.00668
C         -1.97207        1.00305        0.00192
C         -1.40884        2.26238       -0.00224
Cl        -2.28021        3.75089       -0.00625
C          0.01380        2.25085       -0.00333
Cl         0.96101        3.69426       -0.00813
C          0.54947        0.98754        0.00023
S         -0.70876       -0.20149        0.00313
C          1.95751        0.64385        0.00119
C          2.43314       -0.61505        0.00666
C          3.82318       -1.03692        0.00889
C          5.01887       -0.35470       -0.00212
Cl         5.18863        1.36221       -0.02541
C          6.15958       -1.21676        0.00613
Cl         7.78763       -0.64246       -0.00402
C          5.83148       -2.53691        0.02294
H          6.50748       -3.37953        0.03173
S          4.13059       -2.75148        0.02907
C         -3.92756       -0.65899        0.00011
C         -3.48133       -2.07880       -0.01703
O         -2.36673       -2.55303       -0.02967
N         -4.65832       -2.83711       -0.01730
C         -4.67653       -4.28379       -0.03426
C         -5.82620       -2.06697       -0.00062
O         -6.94920       -2.51139        0.00200
C         -5.34545       -0.66433        0.01038
C         -5.90681        0.56688        0.02547
H         -6.95334        0.83892        0.03511
S         -4.68077        1.77698        0.02686
H          2.63259        1.49075       -0.00203
H          1.72120       -1.43998        0.01070
H         -3.64560       -4.62716       -0.12442
H         -5.26541       -4.63890       -0.88315
H         -5.11710       -4.67023        0.88839
