56
COMP87_230000.log	Energy: -2032160.7730507
C         -0.63250        0.58838       -0.00847
C          0.81444        0.83224       -0.06633
C          1.48818        2.00512       -0.34319
C          0.84656        3.24393       -0.64450
N          0.31887        4.25021       -0.87528
C          2.91124        1.84926       -0.32777
Cl         3.94440        3.20298       -0.62346
C          3.33085        0.57315       -0.04545
S          1.93844       -0.44004        0.22137
C          4.63927       -0.04823        0.09170
C          5.81375        0.47460       -0.30529
C          7.12573       -0.14119       -0.16945
C          7.55500       -1.39957        0.17913
Cl         6.53725       -2.73497        0.58304
C          8.98053       -1.54837        0.16058
C          9.66915       -2.75786        0.48108
N         10.24007       -3.73262        0.73886
C          9.61835       -0.39413       -0.20629
H         10.68407       -0.24038       -0.29849
S          8.50788        0.86169       -0.52479
C         -1.16488       -0.62605       -0.45435
C         -2.53322       -0.88069       -0.40972
C         -3.40494        0.08984        0.08125
C         -4.87013        0.21821        0.20963
C         -5.08882        1.63296        0.72271
O         -6.12335        2.21074        0.99605
N         -3.84301        2.19378        0.89254
C         -3.62656        3.54544        1.35040
C         -2.84634        1.31651        0.49782
C         -1.49101        1.57926        0.48667
C         -5.88545       -0.66470       -0.00568
C         -5.65567       -2.15486       -0.22693
O         -4.61309       -2.78218       -0.25911
N         -6.89392       -2.73635       -0.33937
C         -7.09704       -4.14980       -0.53738
C         -7.90331       -1.78288       -0.25797
C         -9.26165       -2.00868       -0.39009
C        -10.11051       -0.90382       -0.31892
H        -11.18193       -1.04854       -0.41946
C         -9.59552        0.37452       -0.13096
C         -8.22372        0.58479        0.00678
C         -7.35077       -0.50312       -0.04152
H          4.62621       -1.02885        0.55488
H          5.82294        1.45229       -0.77468
H         -0.50641       -1.38370       -0.86814
H         -2.91529       -1.82982       -0.75085
H         -4.60504        4.00162        1.50200
H         -3.06491        4.11679        0.60384
H         -3.07452        3.54924        2.29606
H         -1.10850        2.52452        0.85229
H         -6.11672       -4.62704       -0.53763
H         -7.59464       -4.33836       -1.49481
H         -7.70540       -4.56679        0.27191
H         -9.65265       -3.00790       -0.55107
H        -10.26719        1.22562       -0.08657
H         -7.83781        1.57948        0.16487
