44
COMP97_210001.log	Energy: -2036713.9350397
C         -1.79493       -0.07060        0.13580
C         -0.39758       -0.48382        0.32099
C          0.08963       -1.54083        1.02881
F         -0.67596       -2.43542        1.63453
C          1.50573       -1.60453        1.08421
Cl         2.32758       -2.86263        1.92931
C          2.11904       -0.57255        0.41684
S          0.92092        0.47094       -0.28870
C          3.54389       -0.35290        0.27660
C          4.09457        0.74734       -0.26775
C          5.50788        1.02314       -0.45106
C          6.64258        0.26459       -0.28289
Cl         6.71461       -1.38240        0.22570
C          7.83641        0.97614       -0.59723
F          9.03173        0.40700       -0.49765
C          7.62962        2.25546       -0.99981
H          8.37260        2.98358       -1.28827
S          5.94907        2.61746       -1.00164
C         -2.11129        1.27048        0.47617
C         -3.39168        1.74833        0.40662
C         -3.66322        3.16338        0.78151
O         -2.80358        3.94442        1.12986
N         -4.99542        3.54599        0.70572
H         -5.19522        4.50694        0.95898
C         -6.09201        2.77897        0.32814
O         -7.20778        3.25310        0.31021
C         -5.78622        1.37041       -0.04203
C         -6.80964        0.53730       -0.43022
H         -7.82265        0.92415       -0.45569
C         -6.52897       -0.79176       -0.78782
C         -5.23719       -1.26681       -0.75721
C         -4.98803       -2.67320       -1.16099
O         -5.86015       -3.45091       -1.48762
N         -3.65514       -3.04409       -1.15809
H         -3.45372       -3.98132       -1.48776
C         -2.53438       -2.28584       -0.83390
O         -1.43172       -2.75655       -1.00685
C         -2.81211       -0.91086       -0.31292
C         -4.15716       -0.43550       -0.35648
C         -4.45062        0.90007        0.00458
H          4.16695       -1.15427        0.65674
H          3.43595        1.54480       -0.61118
H         -1.32937        1.93791        0.82478
H         -7.31947       -1.46712       -1.09715
