50
COMP91_300001.log	Energy: -1499760.0632406
C          1.25367       -0.21089       -0.19809
C         -0.22749       -0.15925       -0.16032
C         -0.98840       -0.06003        0.96681
C         -0.34166        0.10133        2.22858
N          0.24068        0.23145        3.22365
C         -2.41928       -0.09347        0.70557
C         -3.50214       -0.01074        1.59110
C         -3.39297        0.13676        3.08541
C         -4.76347       -0.07281        1.00146
S         -6.25525        0.01609        1.91878
C         -7.18872       -0.12646        0.48051
H         -8.26951       -0.12287        0.52818
C         -6.43851       -0.23786       -0.64925
C         -7.08141       -0.36651       -1.91820
N         -7.64069       -0.46994       -2.92919
C         -5.00447       -0.21095       -0.38906
C         -3.91960       -0.29846       -1.27417
C         -4.02560       -0.44370       -2.76908
C         -2.65986       -0.23617       -0.68390
S         -1.16883       -0.32935       -1.60017
C          1.85021       -1.49080       -0.12798
C          3.21385       -1.63485       -0.09582
C          3.80312       -3.00000       -0.01273
O          3.14268       -4.01604        0.00952
N          5.19027       -3.04006        0.03649
H          5.60402       -3.96351        0.09750
C          6.08514       -1.97615        0.01589
O          7.28149       -2.16453        0.06707
C          5.46528       -0.62578       -0.07439
C          6.27002        0.48902       -0.09833
H          7.34612        0.36073       -0.05162
C          5.69459        1.77024       -0.17792
C          4.32789        1.91886       -0.23197
C          3.75433        3.28690       -0.31137
O          4.41937        4.30021       -0.33581
N          2.36882        3.33551       -0.36110
H          1.95992        4.26114       -0.42219
C          1.45965        2.28668       -0.35049
O          0.27079        2.51118       -0.42882
C          2.05542        0.91957       -0.25017
C          3.47072        0.78734       -0.20808
C          4.05450       -0.49752       -0.12748
H         -2.36522        0.15110        3.44310
H         -3.90661       -0.69154        3.58815
H         -3.87008        1.06794        3.41346
H         -5.05254       -0.48191       -3.12696
H         -3.52615       -1.36196       -3.10064
H         -3.53186        0.39899       -3.26786
H          1.22539       -2.37733       -0.08786
H          6.31468        2.66021       -0.19477
