31
COMP21_400210.log	Energy: -1874882.7898878
C         -1.94010       -0.07442        0.02657
C         -0.47050       -0.12752        0.01502
C          0.40132        0.75705        0.59041
O          0.10816        1.84617        1.33019
C          1.78861        0.42934        0.36632
C          2.90129        1.12369        0.83853
H          2.77138        2.00543        1.45678
C          4.15145        0.64131        0.48356
S          5.70655        1.31061        0.93483
C          6.53740        0.05792        0.03798
H          7.61933        0.04502        0.01353
C          5.69218       -0.81058       -0.56398
O          5.99970       -1.88707       -1.32988
C          4.29876       -0.50787       -0.33091
C          3.18548       -1.19795       -0.80673
H          3.30859       -2.07662       -1.43070
C          1.93533       -0.71495       -0.44707
S          0.38590       -1.37292       -0.90817
C         -2.61062        1.17048       -0.24434
N         -2.01029        2.35050       -0.41307
S         -3.18285        3.44963       -0.68475
N         -4.48548        2.48731       -0.60660
C         -4.03908        1.25765       -0.34795
C         -4.84375        0.10443       -0.16707
H         -5.92055        0.16433       -0.26026
C         -4.21155       -1.06054        0.14121
Cl        -5.18906       -2.47168        0.39645
C         -2.77152       -1.15410        0.25784
Cl        -2.10930       -2.67962        0.73786
H         -0.63926        2.30379        0.90295
H          6.95833       -1.96814       -1.39722
