54
COMP92_140003.log	Energy: -1791628.8725118
C          0.17709       -0.02273        0.19102
C         -1.26954       -0.20369        0.34738
C         -2.11145        0.39472        1.23223
F         -1.75222        1.34112        2.10511
C         -3.45502       -0.06565        1.20956
O         -4.41428        0.38771        2.03992
C         -3.63990       -1.05274        0.27746
S         -2.14953       -1.39659       -0.56118
C         -4.87853       -1.72768       -0.05944
S         -4.98891       -3.46909       -0.16443
C         -6.66146       -3.41242       -0.57814
H         -7.23168       -4.30852       -0.77180
C         -7.09082       -2.12873       -0.60951
F         -8.33934       -1.72867       -0.89908
C         -6.09196       -1.15080       -0.32380
O         -6.31983        0.17717       -0.34630
C          0.97025       -1.20160        0.18972
C          2.33591       -1.15118        0.12402
C          3.10951       -2.42026        0.13758
O          2.60106       -3.51954        0.16886
N          4.49885       -2.27773        0.11249
C          5.27557       -3.50431        0.17604
O          5.63717       -3.99537        1.20383
O          5.49216       -3.94686       -1.04887
C          6.25053       -5.16000       -1.12364
C          5.22445       -1.08462        0.04292
O          6.43510       -1.10336       -0.00637
C          4.41677        0.16234        0.03332
C          5.06026        1.37797       -0.01502
H          6.14421        1.40126       -0.04179
C          4.30747        2.56288       -0.02806
C          2.93091        2.51731        0.00037
C          2.18359        3.79589       -0.02392
O          2.70737        4.88992       -0.02971
N          0.79926        3.66577       -0.05328
C          0.03407        4.89942       -0.11541
O         -0.42837        5.43011        0.85078
O         -0.04591        5.30174       -1.37051
C         -0.76825        6.52275       -1.56475
C          0.04681        2.48414       -0.08819
O         -1.14678        2.56325       -0.27538
C          0.81242        1.21464        0.08437
C          2.23686        1.28100        0.05112
C          3.00426        0.09418        0.07062
H         -4.06711        1.15116        2.52033
H         -7.25256        0.32108       -0.55451
H          0.48916       -2.17124        0.26953
H          6.35468       -5.36987       -2.18661
H          5.71539       -5.96682       -0.61843
H          7.22813       -5.01919       -0.65806
H          4.79272        3.53227       -0.06196
H         -0.75110        6.70057       -2.63857
H         -0.27665        7.33761       -1.02900
H         -1.79329        6.41133       -1.20542
