36
COMP47_410000.log	Energy: -1507676.3860175
C          2.91279       -0.85952        0.06087
C          1.47161       -0.97792        0.04262
C          0.73138       -2.12581        0.14778
F          1.25610       -3.35498        0.29304
C         -0.67168       -1.96747        0.10129
O         -1.54614       -2.99690        0.19180
C         -1.02851       -0.64808       -0.04793
S          0.38298        0.37068       -0.12700
C         -2.34247       -0.04256       -0.13223
C         -3.51371       -0.71560       -0.12966
C         -4.81445       -0.06993       -0.14845
C         -5.17916        1.12660        0.42145
O         -4.40711        1.96648        1.14626
C         -6.56013        1.42353        0.21405
F         -7.10413        2.54252        0.68813
C         -7.23294        0.47503       -0.48352
H         -8.27551        0.48461       -0.76407
S         -6.19059       -0.83164       -0.90716
C          3.72352        0.24261       -0.03107
C          3.57108        1.70864       -0.17545
O          2.56962        2.38452       -0.26402
N          4.87923        2.21207       -0.19535
C          5.19162        3.61842       -0.32852
C          5.86616        1.22503       -0.07834
O          7.05579        1.43402       -0.07389
C          5.11039       -0.04909        0.02731
C          5.39335       -1.36604        0.16340
H          6.35526       -1.85467        0.23367
S          3.93047       -2.28426        0.22323
H         -1.04855       -3.81502        0.32411
H         -2.35311        1.04072       -0.24737
H         -3.50088       -1.80173       -0.10308
H         -3.60630        1.49139        1.41212
H          4.24776        4.15899       -0.40595
H          5.79313        3.78846       -1.22486
H          5.74977        3.96617        0.54426
