46
COMP71_100013.log	Energy: -1985295.6387685
C         -0.22896       -2.05130        0.11227
C         -1.57717       -1.51509        0.03503
C         -2.09060       -0.46576        0.72070
F         -1.40675        0.25141        1.60191
C         -3.47079       -0.17771        0.45811
C         -4.25645        0.83631        1.00323
H         -3.83610        1.53745        1.71615
C         -5.57792        0.90509        0.58961
S         -6.78425        2.06983        1.10147
C         -7.98762        1.33214        0.07509
H         -8.99329        1.72441        0.02937
C         -7.49570        0.27707       -0.60247
F         -8.20084       -0.46767       -1.45744
C         -6.11126       -0.01593       -0.34558
C         -5.32522       -1.03082       -0.88877
H         -5.74231       -1.73095       -1.60462
C         -4.00415       -1.09928       -0.47497
S         -2.79827       -2.25444       -1.00022
C          0.98491       -1.39891        0.09299
C          1.19728        0.04948       -0.14357
O          0.31309        0.81647       -0.46646
C          2.62165        0.49136       -0.04683
C          3.03295        1.79944       -0.11887
C          2.21340        3.04704       -0.04587
O          1.35106        3.25230        0.76645
O          2.62658        3.93001       -0.96455
C          1.93841        5.18368       -0.95016
S          4.74715        1.91791       -0.18242
C          4.93755        0.20940       -0.09570
C          6.30352       -0.37607       -0.23232
O          6.58039       -1.33024       -0.90912
O          7.19300        0.36304        0.44732
C          8.55303       -0.06013        0.32230
C          3.72248       -0.42573       -0.00386
C          3.51229       -1.87973        0.24422
O          4.41444       -2.65467        0.48916
C          2.09126       -2.30145        0.23351
C          1.70784       -3.60523        0.34542
H          2.35995       -4.46202        0.44616
S          0.00466       -3.76576        0.29864
H          2.37844        5.76614       -1.75826
H          2.07980        5.68470        0.01054
H          0.87106        5.02878       -1.12115
H          9.13320        0.64198        0.91930
H          8.86708       -0.03037       -0.72383
H          8.66892       -1.07712        0.70319
