43
COMP21_000430.log	Energy: -1584013.9692520
C         -2.62914       -0.66370        0.05835
C         -1.20254       -0.32309       -0.00072
C         -0.15950       -1.19138       -0.10900
H         -0.27260       -2.25669       -0.20677
C          1.12518       -0.55116       -0.08094
C          2.39630       -1.15697       -0.14968
C          2.49494       -2.63430       -0.33253
O          1.58738       -3.37356       -0.64221
O          3.74011       -3.08410       -0.11811
C          3.94104       -4.48109       -0.32052
C          3.52375       -0.33069       -0.05976
S          5.20809       -0.81467       -0.11953
C          5.71999        0.83716        0.02571
H          6.77890        1.06145        0.03792
C          4.70648        1.72022        0.13086
H          4.83404        2.78520        0.24694
C          3.41227        1.08067        0.08264
C          2.14072        1.68479        0.14120
C          2.04623        3.16519        0.30905
O          2.95862        3.90412        0.60733
O          0.80389        3.61461        0.09285
C          0.60210        5.01396        0.27727
C          1.01165        0.85905        0.05867
S         -0.66442        1.35014        0.10052
C         -3.66592        0.30811       -0.19367
N         -3.46935        1.58232       -0.51199
S         -4.93739        2.26818       -0.69306
N         -5.88501        0.97751       -0.37661
C         -5.06666       -0.03527       -0.11694
C         -5.47110       -1.35877        0.21490
H         -6.52445       -1.61192        0.27163
C         -4.48405       -2.25815        0.45227
O         -4.68746       -3.56219        0.78825
C         -3.07416       -1.92829        0.38140
O         -2.21595       -2.92671        0.65616
H          4.99450       -4.65650       -0.10641
H          3.70723       -4.75359       -1.35244
H          3.30738       -5.05982        0.35529
H         -0.45458        5.18226        0.07431
H          1.22513        5.58360       -0.41599
H          0.84898        5.30237        1.30172
H         -5.63164       -3.75107        0.84417
H         -2.73090       -3.71751        0.87762
