58
COMP87_230002.log	Energy: -2126443.9827786
C         -0.35862       -0.55734       -0.10476
C          1.09122       -0.77947       -0.16717
C          1.76665       -1.96423       -0.37868
C          1.11528       -3.21363       -0.60841
N          0.56820       -4.22021       -0.78672
C          3.18829       -1.80159       -0.39276
Cl         4.22163       -3.15991       -0.66257
C          3.60413       -0.50766       -0.19445
S          2.20826        0.51485        0.01995
C          4.90562        0.13708       -0.12325
C          6.10905       -0.45985       -0.20030
C          7.40107        0.20672       -0.12106
C          7.80070        1.45064        0.30529
Cl         6.76480        2.67405        0.94830
C          9.21438        1.66662        0.20770
C          9.87428        2.87509        0.58683
N         10.42242        3.85005        0.88941
C          9.87273        0.57492       -0.29063
H         10.93525        0.47800       -0.46258
S          8.79597       -0.70220       -0.63962
C         -0.93482        0.57084       -0.69840
C         -2.31264        0.78014       -0.68244
C         -3.14748       -0.15068       -0.06516
C         -4.60954       -0.32065        0.08980
C         -4.78665       -1.70156        0.70988
O         -5.78176       -2.35761        0.93010
N         -3.51061       -2.11781        1.02018
O         -3.23135       -3.34295        1.54414
C         -3.18726       -4.34287        0.51484
C         -2.53340       -1.28091        0.50955
C         -1.17486       -1.50208        0.53097
C         -5.64968        0.52797       -0.13880
C         -5.45204        2.00060       -0.48492
O         -4.45763        2.62353       -0.79105
N         -6.69354        2.57578       -0.32478
O         -6.96733        3.82282       -0.81690
C         -6.66389        4.81766        0.16255
C         -7.70111        1.62637       -0.17722
C         -9.06221        1.85204       -0.18140
C         -9.88931        0.73897       -0.03051
H        -10.96681        0.87327       -0.03087
C         -9.34815       -0.53597        0.10938
C         -7.96866       -0.73983        0.10822
C         -7.11267        0.35530       -0.02727
H          4.86349        1.21363        0.00382
H          6.16344       -1.53271       -0.34723
H         -0.30497        1.28548       -1.21924
H         -2.73172        1.65396       -1.15588
H         -2.94289       -5.26761        1.03776
H         -2.40433       -4.11455       -0.21600
H         -4.16366       -4.43102        0.03099
H         -0.77187       -2.37939        1.02193
H         -6.96845        5.76054       -0.29371
H         -5.59097        4.83167        0.37167
H         -7.23134        4.64161        1.08241
H         -9.45702        2.85225       -0.31637
H        -10.00669       -1.39168        0.21610
H         -7.56172       -1.73325        0.21319
