50
COMP87_030001.log	Energy: -1406059.1110274
C          0.29970        0.58482       -0.10171
C         -1.15440        0.79029       -0.11717
C         -1.87747        1.95040       -0.33029
C         -1.29010        3.22426       -0.60308
N         -0.83419        4.26957       -0.81406
C         -3.28946        1.76487       -0.26977
H         -3.99672        2.57638       -0.39066
C         -3.64757        0.46749       -0.02168
S         -2.23465       -0.52787        0.16220
C         -4.97396       -0.11943        0.09841
C         -6.09567        0.45291       -0.36868
C         -7.42855       -0.10269       -0.17812
C         -7.86956       -0.99317        0.76426
H         -7.24948       -1.38974        1.55872
C         -9.25186       -1.31600        0.61287
C         -9.95889       -2.21639        1.47008
N        -10.52522       -2.94796        2.16832
C         -9.84384       -0.65801       -0.43545
H        -10.87480       -0.72393       -0.75330
S         -8.72630        0.35152       -1.24656
C          0.85173       -0.61503       -0.56601
C          2.22500       -0.83807       -0.56188
C          3.09041        0.15351       -0.09784
C          4.55100        0.26413        0.10686
C          4.75115        1.64523        0.71856
O          5.77102        2.23010        1.02162
N          3.49942        2.19748        0.83876
H          3.36553        3.14021        1.16980
C          2.50810        1.34882        0.37552
C          1.14852        1.58502        0.39143
C          5.58052       -0.58843       -0.16343
C          5.41483       -1.85718       -0.99554
O          4.43055       -2.31495       -1.54176
N          6.65901       -2.42508       -1.07904
H          6.81836       -3.27577       -1.59516
C          7.61519       -1.69913       -0.38104
C          8.95142       -2.01699       -0.22170
C          9.73092       -1.16192        0.55567
H         10.78447       -1.38212        0.69883
C          9.16821       -0.03666        1.15038
C          7.82038        0.27238        0.97558
C          7.01569       -0.55634        0.18971
H         -5.03730       -1.08701        0.59225
H         -6.02812        1.38199       -0.93096
H          0.20100       -1.38555       -0.96798
H          2.62126       -1.76627       -0.94198
H          0.75586        2.51318        0.79049
H          9.37359       -2.90514       -0.68114
H          9.78459        0.61751        1.75820
H          7.40242        1.15635        1.43024
