37
COMP23_000330.log	Energy: -1010024.9616530
C          0.68966       -0.45220       -0.02215
C         -0.56584        0.32934       -0.16732
C         -1.75845       -0.27354        0.22419
C         -2.96314        0.42232        0.15058
C         -4.26073       -0.19461        0.56164
O         -5.32264        0.38269        0.52509
O         -4.11370       -1.45895        0.97451
C         -5.31798       -2.11843        1.36726
C         -2.98005        1.73443       -0.31473
H         -3.92580        2.26249       -0.36651
C         -1.79749        2.34125       -0.71048
C         -0.58638        1.65131       -0.64444
C          0.67355        2.29562       -1.12794
O          1.71525        1.71111       -1.32621
O          0.52035        3.60827       -1.33401
C          1.68011        4.28941       -1.81468
C          1.65690       -0.08318        0.96657
N          1.55819        0.95836        1.79059
S          2.90720        0.95341        2.69431
N          3.66093       -0.35537        2.09544
C          2.86235       -0.83981        1.14334
C          3.11385       -1.99223        0.34988
H          4.02520       -2.56229        0.48283
C          2.17105       -2.34877       -0.57236
C          2.39452       -3.51415       -1.38168
N          2.59332       -4.46007       -2.02007
C          0.95405       -1.58097       -0.75874
C          0.02305       -2.00534       -1.76605
N         -0.73247       -2.35124       -2.57336
H         -1.75078       -1.29213        0.59545
H         -5.02489       -3.13583        1.62287
H         -6.03707       -2.12005        0.54524
H         -5.76268       -1.61728        2.23040
H         -1.80494        3.35790       -1.08435
H          1.37458        5.32582       -1.95147
H          2.01402        3.85652       -2.76025
H          2.48914        4.22068       -1.08373
