35
COMP27_140400.log	Energy: -1517712.2070536
C         -2.92923        0.42041       -0.15048
C         -1.53797       -0.03930       -0.23531
C         -1.04255       -1.29496       -0.54675
O         -1.69367       -2.41088       -0.90921
C          0.37886       -1.33605       -0.49322
F          1.03013       -2.46828       -0.77657
C          0.99302       -0.16919       -0.14140
S         -0.21019        1.05017        0.12151
C          2.39752        0.15575        0.01223
C          3.41435       -0.70932       -0.16870
C          4.81788       -0.37562       -0.01424
C          5.43047        0.79578        0.33067
F          4.79328        1.94990        0.61465
C          6.85235        0.75843        0.38385
O          7.61455        1.82888        0.70817
C          7.33239       -0.47690        0.06969
H          8.36536       -0.78817        0.02960
S          6.04776       -1.57728       -0.28543
C         -4.01964       -0.45129        0.21145
N         -3.92450       -1.75207        0.47351
S         -5.42092       -2.30102        0.84342
N         -6.24841       -0.90804        0.69300
C         -5.37654        0.03022        0.34240
C         -5.69020        1.39684        0.10816
H         -6.70853        1.75375        0.21629
C         -4.65641        2.20292       -0.24321
O         -4.76440        3.53285       -0.50766
C         -3.29471        1.73140       -0.37538
O         -2.37191        2.64989       -0.71645
H         -2.56500       -2.41987       -0.46152
H          2.61540        1.18157        0.29397
H          3.19885       -1.73492       -0.45016
H          7.02557        2.57394        0.88565
H         -5.68101        3.82085       -0.42117
H         -2.81132        3.50868       -0.81018
