57
COMP79_000033.log	Energy: -2122768.5000924
C         -0.30041        2.23518        0.10432
C          1.06248        1.75453       -0.03910
C          1.60877        0.63618        0.53958
C          2.96012        0.47557        0.18873
C          3.44134        1.46444       -0.63613
S          2.24034        2.62758       -1.01159
C          4.82294        1.17558       -0.95783
C          5.19146       -0.00112       -0.34853
C          4.03183       -0.56068        0.45438
C          4.39097       -0.65793        1.94176
O          3.94057        0.02656        2.82136
O          5.30312       -1.62302        2.12193
C          5.73543       -1.81112        3.47103
C          3.56330       -1.93820       -0.03769
O          4.06400       -2.57630       -0.92507
O          2.48645       -2.30487        0.66679
C          1.84105       -3.52032        0.27963
C          6.52777       -0.38136       -0.62410
C          7.14085        0.52775       -1.43905
H          8.15242        0.50096       -1.82009
S          6.10221        1.84787       -1.88245
C         -1.49090        1.52978        0.13263
C         -1.67609        0.08572       -0.11195
O         -0.77676       -0.72163       -0.28414
C         -3.09332       -0.36258       -0.14232
C         -3.44022       -1.66399       -0.39129
C         -2.50305       -2.79304       -0.70531
O         -2.15707       -3.62878        0.09159
O         -2.15657       -2.75617       -1.98971
C         -1.17748       -3.71745       -2.38765
S         -5.13467       -1.89199       -0.29447
C         -5.40810       -0.21570        0.03548
C         -6.81322        0.27486        0.10857
O         -7.20718        1.32785       -0.31676
O         -7.59691       -0.66485        0.66294
C         -8.98770       -0.34012        0.71827
C         -4.22454        0.47777        0.10799
C         -4.03306        1.91151        0.46871
O         -4.92755        2.63842        0.84821
C         -2.62748        2.38263        0.36157
C         -2.29290        3.69721        0.48505
H         -2.97258        4.52154        0.65195
S         -0.60106        3.93233        0.34582
H          1.05174       -0.03607        1.17410
H          6.46970       -2.61461        3.43337
H          4.89071       -2.09024        4.10500
H          6.18695       -0.89454        3.85723
H          0.79754       -3.41786        0.57637
H          2.30850       -4.36407        0.79364
H          1.92871       -3.66333       -0.79883
H          7.00223       -1.27832       -0.24847
H         -1.05328       -3.58006       -3.46059
H         -1.51695       -4.73097       -2.16251
H         -0.23747       -3.52046       -1.86807
H         -9.46578       -1.19017        1.20286
H         -9.38685       -0.19539       -0.28865
H         -9.14029        0.57263        1.29815
