34
COMP57_300200.log	Energy: -2146827.8968180
C         -1.37237       -0.22949        0.31807
C         -0.02609        0.30514        0.43772
C          0.31533        1.55474        0.88201
H         -0.39761        2.27786        1.26002
C          1.71423        1.79995        0.81595
C          2.32059        3.01622        1.25413
N          2.81292        4.00075        1.61810
C          2.43952        0.73013        0.32099
S          1.38191       -0.57769       -0.07919
C          3.87803        0.67189        0.15741
C          4.56766       -0.45157       -0.11369
C          6.00333       -0.54000       -0.31404
C          6.94388        0.42881       -0.62320
C          6.63581        1.80272       -0.85381
N          6.39849        2.92166       -1.04687
C          8.27246       -0.08611       -0.73622
H          9.12927        0.53088       -0.97592
C          8.32790       -1.42762       -0.52117
H          9.19803       -2.06849       -0.54605
S          6.77490       -2.08448       -0.17822
C         -1.85990       -1.51039        0.43092
Cl        -0.89657       -2.90560        0.76004
N         -3.19764       -1.67969        0.28978
C         -3.77284       -0.53213        0.06212
S         -2.70985        0.83220       -0.01032
C         -5.20537       -0.37843       -0.12649
S         -6.28141       -1.73749       -0.06310
C         -7.58807       -0.66314       -0.37052
H         -8.61035       -1.00290       -0.44619
C         -7.11174        0.60913       -0.49262
Cl        -8.10304        1.98764       -0.80745
N         -5.76981        0.77502       -0.35570
H          4.38951        1.62286        0.28224
H          4.03392       -1.39887       -0.17737
