46
COMP95_000011.log	Energy: -918296.8672262
C          0.38877       -0.23433        0.26619
C         -1.09781       -0.25950        0.36619
C         -1.87542        0.21123       -0.68654
C         -3.25543        0.08209       -0.58293
N         -4.23936        0.45595       -1.47644
H         -4.08138        0.93814       -2.34486
C         -5.48003        0.13619       -0.95588
C         -6.74792        0.33428       -1.50080
C         -7.83940       -0.09213       -0.75711
H         -8.83914        0.04834       -1.15712
C         -7.67790       -0.70001        0.49713
C         -6.41284       -0.89246        1.03290
C         -5.29833       -0.47242        0.30477
C         -3.86954       -0.50956        0.54382
C         -3.07222       -0.98291        1.58417
C         -1.69374       -0.86533        1.48596
C          1.02215       -1.50008        0.17073
C          2.37745       -1.62247        0.01607
C          2.98300       -2.97697       -0.09636
O          2.34783       -4.00863       -0.04289
N          4.36123       -2.99285       -0.27242
H          4.78600       -3.90962       -0.35204
C          5.23224       -1.91280       -0.35228
O          6.42296       -2.08228       -0.50999
C          4.59673       -0.57295       -0.23089
C          5.38249        0.55466       -0.29464
H          6.45239        0.44325       -0.43328
C          4.79119        1.82311       -0.17951
C          3.43092        1.94759       -0.00446
C          2.85137        3.30824        0.12038
O          3.50123        4.33212        0.06409
N          1.48285        3.33515        0.32059
H          1.07191        4.25240        0.45081
C          0.58773        2.27204        0.43136
O         -0.57394        2.50292        0.68499
C          1.17570        0.91110        0.23197
C          2.59003        0.80488        0.06093
C          3.19481       -0.46820       -0.05346
H         -1.41347        0.67331       -1.55357
H         -6.87870        0.80444       -2.47080
H         -8.55401       -1.02173        1.05126
H         -6.28955       -1.36326        2.00399
H         -3.52108       -1.44165        2.46004
H         -1.06080       -1.23072        2.28918
H          0.41554       -2.39954        0.20363
H          5.39066        2.72608       -0.22523
