32
COMP37_320000.log	Energy: -1828189.7171896
C         -3.54148       -0.35889        0.03921
C         -2.15537        0.12472       -0.04433
C         -1.71763        1.39854       -0.27077
Cl        -2.76191        2.73965       -0.55222
C         -0.29311        1.52465       -0.27994
C          0.36744        2.76617       -0.50442
N          0.92206        3.76884       -0.68471
C          0.34973        0.31748       -0.05818
S         -0.81022       -0.94338        0.16082
C          1.75643       -0.03964        0.01379
C          2.79052        0.81467       -0.10804
C          4.19763        0.45870       -0.03860
C          4.84164       -0.74976        0.17598
C          4.18193       -1.99304        0.39349
N          3.62931       -2.99781        0.56829
C          6.26777       -0.62014        0.15775
Cl         7.33064       -1.95853        0.39627
C          6.69032        0.65301       -0.06468
H          7.70934        1.00684       -0.12473
S          5.36094        1.72192       -0.25616
C         -4.03732       -1.29307       -0.87126
F         -3.24859       -1.76071       -1.83793
C         -5.34807       -1.74445       -0.79059
F         -5.78238       -2.63421       -1.68175
C         -6.19780       -1.27540        0.19753
H         -7.22016       -1.62810        0.25916
C         -5.71559       -0.34873        1.10700
F         -6.50702        0.11620        2.07229
C         -4.40346        0.10181        1.03587
F         -3.97055        0.97802        1.93770
H          1.94747       -1.09503        0.18160
H          2.59906        1.86997       -0.27607
