50
COMP87_300001.log	Energy: -1406061.0622618
C         -0.27962        0.52209        0.18893
C          1.17817        0.68491        0.24660
C          1.88637        1.79714        0.61043
H          1.42823        2.71952        0.94630
C          3.29712        1.60990        0.55138
C          4.21112        2.64420        0.91168
N          4.94715        3.49329        1.20141
C          3.66962        0.33927        0.13764
S          2.25481       -0.60601       -0.17945
C          4.96543       -0.28439       -0.06114
C          6.15768        0.33883        0.01573
C          7.45444       -0.28731       -0.17744
C          7.83175       -1.60070       -0.41788
C          6.92504       -2.69629       -0.52507
N          6.19410       -3.59307       -0.61592
C          9.24419       -1.77227       -0.54857
H          9.71018       -2.73137       -0.73607
C          9.92292       -0.60211       -0.40738
H         10.99101       -0.44471       -0.46010
S          8.86265        0.71885       -0.11424
C         -0.88256       -0.71878        0.41795
C         -2.26457       -0.87832        0.37847
C         -3.08563        0.21898        0.11628
C         -4.53827        0.42149       -0.06236
C         -4.67943        1.88534       -0.45819
O         -5.66900        2.54242       -0.70913
N         -3.40922        2.41042       -0.44052
H         -3.23410        3.37574       -0.67086
C         -2.45277        1.45594       -0.13388
C         -1.08435        1.63217       -0.10452
C         -5.60465       -0.41107        0.10884
C         -5.49065       -1.77649        0.78021
O         -4.51963       -2.35139        1.23052
N         -6.76571       -2.27551        0.84756
H         -6.96008       -3.17492        1.25828
C         -7.69326       -1.42584        0.25944
C         -9.04876       -1.65002        0.10331
C         -9.79244       -0.67466       -0.55899
H        -10.85940       -0.82080       -0.69734
C         -9.17755        0.47343       -1.04929
C         -7.81063        0.68702       -0.87859
C         -7.04106       -0.26273       -0.20220
H          4.92928       -1.34432       -0.29424
H          6.19355        1.40188        0.23453
H         -0.26723       -1.58009        0.66039
H         -2.70056       -1.84518        0.57376
H         -0.64221        2.59607       -0.33545
H         -9.51222       -2.55703        0.47833
H         -9.76677        1.22020       -1.57139
H         -7.35036        1.58708       -1.25424
