39
COMP59_000320.log	Energy: -1689071.2870510
C          0.98258       -0.80201        0.04820
C         -0.44336       -0.56830        0.03919
C         -1.07205        0.65802        0.16595
C         -2.47048        0.54793        0.11750
C         -2.89486       -0.74543       -0.07739
S         -1.60885       -1.86356       -0.16843
C         -4.34061       -0.76656       -0.19129
C         -4.82353        0.51080       -0.06225
C         -3.67202        1.49811        0.15264
O         -3.91040        2.11884        1.38395
C         -2.85315        2.92463        1.87026
O         -3.46890        2.42614       -0.87469
C         -4.57014        3.27157       -1.15266
C         -6.23880        0.56946       -0.08924
C         -6.78675       -0.67232       -0.26440
H         -7.83435       -0.92986       -0.33838
S         -5.59207       -1.92340       -0.37467
C          1.71480       -1.97355        0.16581
C          1.15200       -3.27894        0.31558
N          0.68699       -4.33446        0.43375
N          3.07854       -1.84651        0.14478
C          3.41636       -0.60158        0.01355
S          2.09464        0.52292       -0.10917
C          4.79648       -0.14701       -0.03291
S          6.11817       -1.27503        0.08491
C          7.20139        0.04505       -0.05448
H          8.27404       -0.08621       -0.04125
C          6.50232        1.21582       -0.17747
C          7.11661        2.50336       -0.31521
N          7.63793        3.53165       -0.42538
N          5.13516        1.10148       -0.16464
H         -0.53433        1.59142        0.28877
H         -3.26053        3.48801        2.71110
H         -2.49352        3.62097        1.10427
H         -2.01821        2.30772        2.22637
H         -4.96844        3.72528       -0.23813
H         -5.36944        2.72291       -1.66643
H         -4.19477        4.05430       -1.81366
H         -6.82756        1.47120        0.02293
