39
COMP78_000002.log	Energy: -1467458.1851180
C         -1.41887       -0.63858       -0.03909
C         -2.50094        0.34005       -0.04351
C         -3.84851        0.03107        0.01796
O         -4.33222       -1.23386        0.12357
C         -5.71982       -1.33146       -0.18200
C         -6.49049       -0.22138        0.50978
O         -6.07485        1.04638        0.02544
C         -4.71735        1.15762       -0.02479
C         -4.03267        2.32587       -0.13327
H         -4.45152        3.32108       -0.18000
S         -2.33162        2.08319       -0.16593
C         -0.02899       -0.53124       -0.04696
C          0.77321        0.70962       -0.04955
O          0.27751        1.82752       -0.07075
C          2.23789        0.52268       -0.02298
C          3.13743        1.55240        0.00714
O          2.84996        2.85096       -0.00383
C          3.90430        3.78219        0.15440
S          4.80168        0.97187        0.03994
C          4.24286       -0.69701        0.01169
O          5.08491       -1.72663        0.02292
C          6.47517       -1.46590        0.08226
C          2.87955       -0.77452       -0.02065
C          2.10056       -2.01872       -0.03967
O          2.59221       -3.13561       -0.04492
C          0.62964       -1.81156       -0.04566
C         -0.23573       -2.85829       -0.03877
H          0.02732       -3.90721       -0.03230
S         -1.86173       -2.34046       -0.02713
H         -6.03910       -2.31402        0.16977
H         -5.86205       -1.26797       -1.26800
H         -6.33305       -0.28044        1.59516
H         -7.55860       -0.30047        0.29757
H          3.43581        4.76527        0.12985
H          4.62885        3.70350       -0.66598
H          4.41310        3.64107        1.11566
H          6.95988       -2.44135        0.07985
H          6.73665       -0.92924        1.00254
H          6.80597       -0.89106       -0.79174
