65
COMP89_000023.log	Energy: -1695262.2510508
C          1.08798       -0.23830       -0.15266
C          2.54248       -0.40739       -0.16731
C          3.49161        0.42402        0.38374
C          4.80609       -0.03608        0.15339
C          4.84654       -1.21747       -0.54147
S          3.28596       -1.78227       -0.95964
C          6.22517       -1.65852       -0.66431
C          7.04934       -0.75068       -0.05146
C          6.22300        0.39253        0.54632
O          6.68224        1.57119       -0.05633
C          5.90268        2.72312        0.20546
O          6.23754        0.48126        1.94423
C          7.51547        0.66740        2.52166
C          8.42365       -1.06648       -0.19760
C          8.59978       -2.22794       -0.89853
H          9.53011       -2.71962       -1.14711
S          7.09822       -2.93199       -1.40959
C          0.21756       -1.33279       -0.23736
C         -1.15790       -1.16650       -0.20152
C         -1.70513        0.11231       -0.06049
C         -3.07235        0.63058       -0.09838
C         -2.93654        2.13389       -0.04131
O         -3.81096        2.95896        0.03700
N         -1.54995        2.41516        0.02214
C         -0.95750        3.67862        0.14338
O          0.21919        3.84118        0.37202
O         -1.83309        4.65766       -0.03802
C         -1.29370        5.97377        0.09172
C         -0.81660        1.20470       -0.00499
C          0.55569        1.05560       -0.05187
C         -4.29134        0.01300       -0.11334
C         -4.46927       -1.42007        0.32072
O         -3.62914       -2.18759        0.71870
N         -5.85858       -1.68969        0.27279
C         -6.49256       -2.88546        0.63394
O         -7.69357       -3.02708        0.62912
O         -5.62368       -3.82913        0.97149
C         -6.21163       -5.07203        1.35779
C         -6.55065       -0.54878       -0.20570
C         -7.90453       -0.42390       -0.47829
C         -8.34874        0.78173       -1.01673
H         -9.40623        0.90289       -1.23095
C         -7.46124        1.81807       -1.29034
C         -6.10828        1.68338       -1.00495
C         -5.63651        0.49852       -0.43315
H          3.23605        1.30747        0.95659
H          6.48536        3.57458       -0.15030
H          5.70477        2.83882        1.27716
H          4.95053        2.68914       -0.33879
H          8.05901        1.48604        2.03595
H          8.11228       -0.25187        2.46515
H          7.34413        0.91578        3.57046
H          9.24407       -0.47146        0.18410
H          0.62038       -2.33878       -0.30711
H         -1.80143       -2.03030       -0.25393
H         -2.13988        6.64295       -0.05592
H         -0.52625        6.14900       -0.66578
H         -0.85941        6.11455        1.08392
H          1.20039        1.92125       -0.03270
H         -5.37254       -5.70638        1.63947
H         -6.76256       -5.51049        0.52250
H         -6.88993       -4.93098        2.20205
H         -8.58591       -1.23755       -0.28079
H         -7.82407        2.74364       -1.72534
H         -5.42985        2.49649       -1.20932
