27
COMP22_100000.log	Energy: -1280415.5702429
C         -2.21040        0.84261       -0.04540
C         -0.75401        0.98445       -0.07427
C         -0.01292        2.13704       -0.19330
F         -0.55223        3.35640       -0.32403
C          1.38888        1.98080       -0.18831
H          2.08134        2.80518       -0.30529
C          1.74160        0.66479       -0.05636
S          0.35138       -0.36197        0.06875
C          3.07920        0.09559       -0.01567
S          4.41921        1.02680        0.58707
C          5.52819       -0.26150        0.29949
H          6.58108       -0.16513        0.51809
C          4.87500       -1.33858       -0.21253
F          5.48034       -2.48388       -0.53229
C          3.48002       -1.15569       -0.40149
H          2.82652       -1.90819       -0.82532
C         -2.84239       -0.44954        0.02184
N         -2.21521       -1.62356        0.06388
S         -3.36613       -2.77163        0.13713
N         -4.69763       -1.84095        0.11790
C         -4.27887       -0.57592        0.05338
C         -5.10907        0.57861        0.01825
H         -6.18707        0.47106        0.04376
C         -4.48663        1.78915       -0.04501
H         -5.07847        2.69886       -0.07193
C         -3.06549        1.92220       -0.07551
H         -2.65649        2.92189       -0.12279
