32
COMP52_410400.log	Energy: -1719012.0700084
C         -1.03835        0.24472        0.42315
C          0.38173        0.50583        0.23428
C          0.96867        1.73945        0.11921
O          0.36122        2.93865        0.15455
C          2.37799        1.64723       -0.04693
F          3.13701        2.73832       -0.16929
C          2.87565        0.37494       -0.05830
S          1.57559       -0.76971        0.12623
C          4.26040       -0.02932       -0.19229
S          5.56749        1.10970       -0.36995
C          6.74238       -0.15752       -0.45245
H          7.78963        0.08188       -0.57544
C          6.17469       -1.39194       -0.34944
O          6.76205       -2.60988       -0.37095
C          4.75998       -1.30025       -0.20169
F          4.00256       -2.39226       -0.08209
C         -1.67271       -0.02856        1.61570
O         -1.09036       -0.10825        2.81988
N         -3.01447       -0.23062        1.56202
C         -3.43451       -0.12305        0.33053
S         -2.22628        0.22447       -0.85840
C         -4.83212       -0.27433       -0.04459
S         -6.04582       -0.63246        1.13882
C         -7.21736       -0.60995       -0.12626
H         -8.26480       -0.79207        0.06751
C         -6.60449       -0.33984       -1.32149
O         -7.17325       -0.23735       -2.53875
N         -5.25829       -0.15065       -1.27062
H         -0.58902        2.79503        0.27431
H          7.71451       -2.50079       -0.47501
H         -0.13963        0.03817        2.70813
H         -8.12204       -0.38964       -2.45845
