27
COMP39_000010.log	Energy: -1111039.8583260
C         -1.94857        0.06689        0.05590
C         -0.49015        0.21022        0.12439
C          0.21920        1.33369        0.48911
C          1.61460        1.14386        0.39745
C          1.95234       -0.11643       -0.04403
S          0.58371       -1.10129       -0.33631
C          3.39311       -0.22596       -0.09621
C          3.94751        0.96773        0.30788
C          2.86088        1.95592        0.66475
H          2.90526        2.85894        0.04389
H          2.92568        2.27827        1.71095
C          5.36694        0.94967        0.27632
C          5.84697       -0.25688       -0.15027
H          6.87956       -0.55426       -0.27123
S          4.58413       -1.39002       -0.52089
C         -2.78039        1.16553       -0.20317
F         -2.25916        2.37820       -0.41479
C         -4.16169        1.04130       -0.25721
F         -4.89326        2.12912       -0.50657
C         -4.78094       -0.18182       -0.06805
H         -5.85843       -0.27654       -0.11600
C         -3.97806       -1.28116        0.18012
F         -4.52692       -2.48162        0.37171
C         -2.59717       -1.15991        0.24424
F         -1.88458       -2.26453        0.48939
H         -0.25797        2.24986        0.80955
H          6.00837        1.77820        0.55307
