32
COMP64_300000.log	Energy: -1116926.3080070
C          1.21092       -0.53502       -0.29879
C         -0.23408       -0.39454       -0.17295
C         -1.13825       -1.24594        0.43323
C         -0.79999       -2.45630        1.10515
N         -0.55714       -3.44360        1.66247
C         -2.46125       -0.71528        0.38249
S         -4.01232       -1.24365        0.94154
C         -4.74995        0.18543        0.31428
H         -5.81492        0.33785        0.42377
C         -3.86552        1.03626       -0.29393
C         -4.23388        2.27788       -0.89325
N         -4.51784        3.28685       -1.38771
C         -2.53447        0.50923       -0.24945
S         -0.98773        1.04475       -0.79000
C          2.16260        0.40635       -0.02705
C          2.35321        1.73929        0.54224
O          1.58159        2.60794        0.89364
N          3.77303        1.85798        0.60569
C          4.43247        3.04930        1.09403
C          4.38976        0.71988        0.13829
H          5.46967        0.64321        0.14104
C          3.44876       -0.17555       -0.26151
C          3.25800       -1.53662       -0.74673
O          4.02335       -2.39808       -1.12195
N          1.83641       -1.69445       -0.73415
C          1.22336       -2.87656       -1.30896
H          3.64964        3.75077        1.38703
H          5.04878        3.50449        0.31300
H          5.05450        2.82131        1.96473
H          1.93806       -3.29917       -2.01740
H          0.30371       -2.60531       -1.83296
H          1.00056       -3.62390       -0.54386
