28
COMP52_210000.log	Energy: -2107051.2830855
C         -1.60230       -0.03309       -0.28642
C         -0.22873        0.43210       -0.19849
C          0.28722        1.70140       -0.20036
Cl        -0.61830        3.16291       -0.31732
C          1.70443        1.71219       -0.12381
F          2.39838        2.84890       -0.12319
C          2.28820        0.47907       -0.06041
S          1.04831       -0.74289       -0.07585
C          3.69998        0.16789        0.02368
S          4.94434        1.38774        0.04587
C          6.19479        0.20997        0.15648
H          7.23235        0.50748        0.20327
C          5.69674       -1.05515        0.17492
Cl         6.63654       -2.49800        0.27592
C          4.27710       -1.06927        0.09939
F          3.57756       -2.20297        0.10395
C         -2.04109       -1.18303       -0.89555
H         -1.40481       -1.86274       -1.45082
N         -3.37236       -1.44863       -0.79496
C         -3.97259       -0.51228       -0.11297
S         -2.95111        0.76900        0.45824
C         -5.40165       -0.50118        0.15893
S         -6.44353       -1.76037       -0.43216
C         -7.76563       -0.95691        0.32125
H         -8.77046       -1.35088        0.26639
C         -7.33475        0.17534        0.94660
H         -7.96605        0.86122        1.49747
N         -5.99381        0.43006        0.85263
