44
COMP92_430001.log	Energy: -1496966.6627773
C          0.96848       -0.43671        0.21447
C         -0.49003       -0.60901        0.36202
C         -1.12645       -1.39743        1.28086
O         -0.56317       -2.13828        2.25519
C         -2.55058       -1.36387        1.15406
C         -3.40653       -2.07884        2.04183
N         -4.09271       -2.66974        2.76590
C         -2.97225       -0.54752        0.12062
S         -1.62719        0.16068       -0.69114
C         -4.33289       -0.28351       -0.32480
S         -5.53900       -1.51795       -0.30022
C         -6.73321       -0.46443       -0.95442
H         -7.74162       -0.81819       -1.11904
C         -6.23208        0.78250       -1.19027
O         -6.87089        1.85976       -1.68943
C         -4.84954        0.89519       -0.83339
C         -4.13384        2.12064       -0.97490
N         -3.56589        3.12283       -1.10657
C          1.70897       -1.57483       -0.19360
C          3.06204       -1.50902       -0.41169
C          3.79649       -2.73426       -0.83452
O          3.26994       -3.81714       -0.97353
N          5.15408       -2.55665       -1.06409
H          5.66528       -3.38261       -1.35447
C          5.90251       -1.38974       -0.95076
O          7.09083       -1.38457       -1.18885
C          5.14078       -0.18537       -0.52104
C          5.79610        1.01498       -0.37881
H          6.85964        1.06187       -0.58691
C          5.08679        2.15817        0.03195
C          3.73951        2.08494        0.30024
C          3.02876        3.31281        0.74351
O          3.55963        4.39693        0.85599
N          1.68910        3.12931        1.04434
H          1.19950        3.93966        1.40790
C          0.94148        1.95739        1.00896
O         -0.18375        1.94445        1.45572
C          1.63731        0.76580        0.42600
C          3.03254        0.86081        0.16032
C          3.75060       -0.28275       -0.26035
H          0.38720       -1.96786        2.28752
H         -7.79522        1.64182       -1.85866
H          1.19514       -2.51747       -0.35673
H          5.58668        3.11401        0.14665
