27
COMP22_010100.log	Energy: -1404918.8264290
C         -1.78607        0.29450       -0.00147
C         -0.39393       -0.15232       -0.00184
C          0.05845       -1.44979       -0.00443
H         -0.58085       -2.31990       -0.00651
C          1.46429       -1.51531       -0.00371
F          2.11422       -2.68640       -0.00568
C          2.11764       -0.31148       -0.00077
S          0.94706        0.97097        0.00057
C          3.54509       -0.07081        0.00040
S          4.72555       -1.35367       -0.00160
C          6.03501       -0.23426        0.00153
H          7.05239       -0.59986        0.00172
C          5.61532        1.06093        0.00421
H          6.25998        1.93006        0.00682
C          4.20031        1.13271        0.00321
F          3.55242        2.30376        0.00573
C         -2.90082       -0.63005        0.00057
N         -2.81865       -1.95753        0.00310
S         -4.34046       -2.53379        0.00350
N         -5.16945       -1.13508        0.00428
C         -4.26721       -0.15733        0.00123
C         -4.57165        1.23327       -0.00026
H         -5.59224        1.59332        0.00056
C         -3.51238        2.07521       -0.00204
F         -3.67648        3.39553       -0.00290
C         -2.15616        1.61457       -0.00250
F         -1.23734        2.58372       -0.00365
