28
COMP52_220100.log	Energy: -2683833.3052859
C          1.58244       -0.32095       -0.08222
C          0.18701        0.05880       -0.19421
C         -0.38379        1.30582       -0.29987
Cl         0.49505        2.78967       -0.32182
C         -1.80697        1.27555       -0.40222
Cl        -2.76803        2.69127       -0.57880
C         -2.31910        0.00986       -0.36677
S         -1.05522       -1.16244       -0.20731
C         -3.71670       -0.40408       -0.43728
S         -4.33535       -1.25613       -1.81737
C         -5.90784       -1.35274       -1.13539
H         -6.71748       -1.83972       -1.65972
C         -5.96251       -0.75401        0.08552
Cl        -7.39220       -0.66982        1.04767
C         -4.70315       -0.21093        0.49232
Cl        -4.45599        0.57346        2.00358
C          2.08780       -1.59411        0.04321
F          1.31887       -2.67529        0.08177
N          3.41595       -1.75968        0.12962
C          3.99751       -0.58934        0.07228
S          2.94111        0.77107       -0.08916
C          5.43640       -0.41113        0.14021
S          6.51025       -1.76211        0.31227
C          7.83410       -0.66259        0.29739
H          8.86180       -0.98071        0.38325
C          7.35209        0.60508        0.16634
F          8.11194        1.68691        0.12051
N          6.01291        0.75972        0.07675
