21
COMP14_200000.log	Energy: -1661944.6041238
C         -1.80411       -0.83002       -0.00090
C         -0.42996       -0.36698       -0.00058
C          0.11915        0.89486       -0.00068
Cl        -0.72364        2.39394       -0.00107
C          1.54153        0.86750       -0.00025
S          2.77901        2.07640       -0.00016
C          4.00408        0.84662        0.00016
H          5.05027        1.11845        0.00028
C          3.48913       -0.41372        0.00032
Cl         4.43422       -1.86175        0.00063
C          2.06628       -0.40561        0.00006
S          0.82930       -1.60596       -0.00003
C         -2.23115       -2.10553       -0.00213
C         -3.69083       -2.28622       -0.00133
C         -4.38597       -1.15111        0.00047
H         -5.45412       -0.98429        0.00135
S         -3.28206        0.24482        0.00102
O         -3.39025        0.95584        1.26608
O         -3.39222        0.95802       -1.26263
H         -1.56602       -2.96234       -0.00352
H         -4.13907       -3.27289       -0.00221
