48
COMP77_220003.log	Energy: -3015077.4827650
C         -1.18441        2.30668       -0.49301
C          0.20595        2.12769       -0.08075
C          0.91401        2.83541        0.85119
Cl         0.24968        4.12102        1.78787
C          2.25639        2.37629        0.99665
Cl         3.36722        3.07436        2.11811
C          2.56544        1.31972        0.17536
S          1.19593        0.90541       -0.80348
C          3.83580        0.62506        0.08989
C          4.01682       -0.54958       -0.53873
C          5.26520       -1.28181       -0.67801
C          6.58390       -0.92269       -0.52049
Cl         7.14019        0.65396       -0.09225
C          7.49507       -1.99360       -0.78357
Cl         9.21067       -1.83417       -0.66953
C          6.87129       -3.14881       -1.13857
H          7.33308       -4.09444       -1.38228
S          5.16729       -2.95275       -1.15719
C         -2.24848        1.45011       -0.33744
C         -2.22765        0.16974        0.41463
O         -1.31094       -0.16649        1.13564
C         -3.46064       -0.65438        0.24725
C         -3.59932       -1.94949        0.68156
C         -2.55532       -2.88272        1.20172
O         -1.47194       -3.04028        0.70368
O         -3.02443       -3.56910        2.25099
C         -2.12317       -4.53934        2.79242
S         -5.19856       -2.52953        0.43044
C         -5.68375       -1.06244       -0.32994
C         -7.03421       -0.98443       -0.95983
O         -7.26390       -0.50975       -2.04023
O         -7.94256       -1.58784       -0.17962
C         -9.26482       -1.64593       -0.72142
C         -4.66471       -0.14119       -0.33819
C         -4.76165        1.26572       -0.82530
O         -5.81008        1.80589       -1.11133
C         -3.45876        1.96817       -0.90096
C         -3.29377        3.19940       -1.46763
H         -4.06037        3.80092       -1.93712
S         -1.67296        3.73383       -1.35138
H          4.66053        1.11595        0.59341
H          3.15332       -1.04326       -0.98362
H         -2.65896       -5.00645        3.61738
H         -1.21458       -4.05050        3.15027
H         -1.85906       -5.27945        2.03359
H         -9.85813       -2.18490        0.01574
H         -9.26239       -2.17460       -1.67745
H         -9.65679       -0.63738       -0.86952
