48
COMP94_200003.log	Energy: -2100978.7609647
C         -0.20960       -0.37594       -0.03134
C         -1.56277       -0.96817        0.04741
C         -2.38772       -1.00159        1.13111
Cl        -2.03158       -0.25485        2.64783
C         -3.59775       -1.70358        0.87087
S         -5.01511       -2.09312        1.78095
C         -5.68817       -2.92886        0.41442
H         -6.66027       -3.39563        0.48633
C         -4.86906       -2.90669       -0.67122
Cl        -5.23295       -3.64525       -2.19197
C         -3.65880       -2.19944       -0.41410
S         -2.24067       -1.81381       -1.32298
C          0.88457       -1.26765        0.07053
C          2.17846       -0.81264        0.06063
C          3.29359       -1.78857        0.17580
O          3.13425       -2.98694        0.25101
N          4.57658       -1.23586        0.19340
C          5.67992       -2.16868        0.35532
O          6.11122       -2.49021        1.42234
O          6.08937       -2.56767       -0.83435
C          7.18314       -3.49322       -0.81497
C          4.91678        0.11515        0.07711
O          6.07834        0.45965        0.07367
C          3.77576        1.06023       -0.03675
C          4.02552        2.40921       -0.13363
H          5.05273        2.75728       -0.12336
C          2.95509        3.31448       -0.24040
C          1.65617        2.85946       -0.25596
C          0.55717        3.84874       -0.36865
O          0.72774        5.04778       -0.41342
N         -0.72432        3.30556       -0.42785
C         -1.81643        4.24545       -0.62826
O         -2.16615        4.61971       -1.70773
O         -2.31399        4.58676        0.54557
C         -3.41961        5.49614        0.48953
C         -1.08988        1.95722       -0.35091
O         -2.25786        1.65474       -0.44955
C          0.03014        0.98530       -0.16769
C          1.36603        1.47436       -0.15954
C          2.44686        0.57065       -0.04543
H          0.70023       -2.33206        0.17320
H          7.38862       -3.71715       -1.86016
H          6.89856       -4.39682       -0.27207
H          8.05168       -3.03459       -0.33798
H          3.13256        4.38195       -0.31355
H         -3.68202        5.69341        1.52735
H         -4.25494        5.03386       -0.04055
H         -3.12346        6.41582       -0.01890
