40
COMP71_200001.log	Energy: -2201011.3971863
C         -1.65512        1.42531        0.28805
C         -0.24729        1.02746        0.22186
C          0.45260        0.31763        1.13937
Cl        -0.31706       -0.22242        2.59775
C          1.83373        0.06010        0.77691
C          2.84141       -0.63558        1.46491
C          2.63874       -1.29376        2.80613
C          4.07893       -0.69480        0.82730
S          5.48291       -1.51002        1.49856
C          6.43584       -1.07686        0.12276
H          7.47314       -1.37437        0.05747
C          5.74866       -0.36323       -0.79317
Cl         6.53296        0.17410       -2.25111
C          4.36290       -0.10924       -0.43625
C          3.35469        0.58269       -1.12523
C          3.55576        1.23047       -2.47185
C          2.11741        0.64240       -0.48738
S          0.71793        1.45243       -1.16301
C         -2.77290        0.67761        0.01413
C         -2.76700       -0.73877       -0.44307
O         -1.75081       -1.37771       -0.63959
C         -4.12019       -1.31113       -0.64891
C         -4.35643       -2.59343       -1.05328
H         -3.61696       -3.35107       -1.27334
S         -6.04030       -2.90838       -1.18805
C         -6.44889       -1.31179       -0.70233
H         -7.47734       -0.98672       -0.62414
C         -5.33241       -0.56945       -0.44540
C         -5.34144        0.84519       -0.00837
O         -6.36315        1.48512        0.16104
C         -3.98887        1.41680        0.20801
C         -3.76648        2.70075        0.61425
H         -4.51833        3.44966        0.82321
S         -2.09446        3.03188        0.77412
H          2.33844       -0.56749        3.56570
H          3.55616       -1.77406        3.15496
H          1.86232       -2.06170        2.75794
H          4.32234        2.00872       -2.42989
H          2.63408        1.69492       -2.83113
H          3.86822        0.49948       -3.22189
