40
COMP71_000001.log	Energy: -1624238.2226247
C         -1.13210        1.29666       -0.26805
C          0.26463        0.89915       -0.13946
C          0.85784       -0.27575       -0.47489
H          0.29028       -1.10975       -0.85686
C          2.27898       -0.29083       -0.25915
C          3.17807       -1.34155       -0.49552
C          2.75868       -2.68322       -1.03095
C          4.51176       -1.07597       -0.20175
S          5.82924       -2.21393       -0.40937
C          6.97168       -1.04359        0.18389
H          8.01855       -1.30897        0.24971
C          6.40866        0.13680        0.51999
H          6.98189        0.97012        0.90708
C          4.97929        0.16282        0.31113
C          4.07890        1.21138        0.55068
C          4.49138        2.55177        1.09536
C          2.74652        0.94656        0.25259
S          1.43010        2.07589        0.47452
C         -2.32176        0.58764       -0.19105
C         -2.49586       -0.86281        0.07062
O         -1.58625       -1.67363        0.13643
C         -3.90590       -1.29950        0.23975
C         -4.27015       -2.58035        0.54260
H         -3.61023       -3.42015        0.71089
S         -5.97818       -2.74097        0.63627
C         -6.22538       -1.08291        0.26047
H         -7.21601       -0.65519        0.19057
C         -5.03725       -0.43649        0.07615
C         -4.88490        0.99369       -0.25490
O         -5.82772        1.74720       -0.41901
C         -3.47308        1.44442       -0.34873
C         -3.15050        2.75089       -0.55362
H         -3.84408        3.56879       -0.69285
S         -1.45831        2.98579       -0.56173
H          1.67706       -2.76398       -1.14918
H          3.07887       -3.48488       -0.35503
H          3.22120       -2.87402       -2.00686
H          5.57044        2.62717        1.24025
H          4.01093        2.74405        2.06236
H          4.19021        3.35703        0.41466
