27
COMP43_000012.log	Energy: -739888.4665806
C         -0.88079        0.71993        0.04358
C         -2.15549       -0.01232        0.02064
C         -2.18782       -1.39060        0.27133
C         -3.39661       -2.07580        0.25877
H         -3.40350       -3.14414        0.45158
C         -4.58776       -1.40414        0.00129
H         -5.52975       -1.94394       -0.00673
C         -4.56454       -0.03551       -0.25369
C         -3.35968        0.65392       -0.24768
H         -3.36014        1.71761       -0.47003
C          0.41895        0.29131       -0.05150
C          1.15558       -0.99051       -0.22306
O          0.78818       -2.13943       -0.28078
N          2.50294       -0.59019       -0.27500
O          3.49752       -1.47684       -0.53851
C          4.04038       -2.00202        0.67568
C          2.74537        0.78707       -0.14760
O          3.82706        1.31709       -0.14918
C          1.37911        1.34448        0.00008
C          0.84493        2.57941        0.14741
H          1.34611        3.53503        0.21225
S         -0.87508        2.46455        0.22825
H         -1.26402       -1.92628        0.45628
H         -5.48665        0.49676       -0.46551
H          4.81257       -2.70176        0.35475
H          3.26870       -2.53140        1.24279
H          4.48539       -1.20116        1.27392
