37
COMP21_000220.log	Energy: -1924192.7209596
C          2.14837       -0.02032       -0.01603
C          0.67750        0.04498       -0.05913
C         -0.18652       -0.76604        0.59756
H          0.12802       -1.56513        1.25767
C         -1.56300       -0.44571        0.34076
C         -2.70982       -1.07148        0.83954
O         -2.62319       -2.13551        1.69451
C         -2.45557       -3.38432        1.03246
C         -3.94481       -0.56904        0.45241
S         -5.50799       -1.17571        0.94525
C         -6.30385        0.03393       -0.02891
H         -7.38535        0.05854       -0.05692
C         -5.45364        0.85494       -0.68355
H         -5.76693        1.65324       -1.34494
C         -4.07153        0.53755       -0.42341
C         -2.92444        1.16133       -0.92220
O         -3.00760        2.22552       -1.77865
C         -3.14144        3.47684       -1.11433
C         -1.68854        0.65768       -0.53690
S         -0.13107        1.26301       -1.03587
C          2.89542        1.10236        0.47665
N          2.37306        2.24731        0.91663
S          3.62541        3.17949        1.36552
N          4.86858        2.18492        1.03389
C          4.32800        1.06694        0.54766
C          5.03757       -0.09083        0.13339
H          6.11824       -0.12244        0.19399
C          4.31851       -1.14915       -0.33220
Cl         5.18317       -2.56821       -0.83693
C          2.87419       -1.11823       -0.41754
Cl         2.06548       -2.50512       -1.07501
H         -2.42187       -4.14481        1.81376
H         -1.52083       -3.40497        0.45843
H         -3.29615       -3.58713        0.35800
H         -3.17515        4.23827       -1.89483
H         -2.28644        3.66540       -0.45391
H         -4.06601        3.51262       -0.52479
