29
COMP22_030000.log	Energy: -1271634.3212828
C          2.08279        0.73618        0.02639
C          0.74281        0.14643        0.08863
C          0.37443       -1.11123        0.48393
H          1.07842       -1.86940        0.79681
C         -1.03442       -1.31141        0.44850
C         -1.64018       -2.53957        0.85790
N         -2.10926       -3.54576        1.19254
C         -1.73914       -0.20131        0.01788
S         -0.64931        1.08242       -0.36183
C         -3.17573       -0.04473       -0.16130
S         -4.14599       -1.32407       -0.80381
C         -5.57707       -0.37763       -0.71338
H         -6.52358       -0.79890       -1.02236
C         -5.33932        0.86756       -0.22048
H         -6.09855        1.62471       -0.07254
C         -3.96137        1.06602        0.09700
C         -3.47111        2.28752        0.65303
N         -3.09763        3.29050        1.09952
C          3.25965       -0.08860       -0.05201
N          3.29607       -1.42140       -0.06707
S          4.86313       -1.84481       -0.16859
N          5.55799       -0.37716       -0.20067
C          4.56738        0.51417       -0.12995
C          4.71966        1.92961       -0.12722
H          5.71003        2.36558       -0.18659
C          3.58786        2.68419       -0.04449
H          3.65857        3.76699       -0.03121
C          2.29045        2.09398        0.03691
H          1.43972        2.76414        0.12518
