25
COMP44_400001.log	Energy: -1261395.6120968
C          1.13090       -0.59145       -0.11424
C         -0.29058       -0.33154       -0.03440
C         -1.28584       -1.24570        0.25897
O         -1.15734       -2.54827        0.59152
C         -2.57862       -0.66936        0.16664
S         -4.18890       -1.24947        0.42059
C         -4.82146        0.33398        0.04762
H         -5.89078        0.49867        0.06157
C         -3.85148        1.24753       -0.24597
O         -3.99208        2.55308       -0.57357
C         -2.55018        0.66343       -0.18111
S         -0.94798        1.26737       -0.38211
C          2.21887        0.22861        0.04249
C          2.48403        1.64982        0.38515
O          1.72900        2.56670        0.60099
N          3.88499        1.74335        0.40802
H          4.36161        2.61136        0.60757
C          4.56475        0.55939        0.10610
O          5.76191        0.41819        0.06300
C          3.47156       -0.42285       -0.12985
C          3.38535       -1.74027       -0.42481
H          4.17386       -2.46226       -0.58454
S          1.72088       -2.19977       -0.53708
H         -0.25299       -2.73988        0.87737
H         -4.92642        2.79146       -0.55550
