54
COMP81_300010.log	Energy: -1454659.7500678
C         -0.45741        0.05880        0.10764
C         -1.92558        0.08401        0.07086
C         -2.78703       -0.91892       -0.29136
C         -2.38810       -2.21379       -0.73468
N         -2.11173       -3.28416       -1.08762
C         -4.18290       -0.54156       -0.22477
C         -5.29943       -1.31516       -0.53530
H         -5.18508       -2.34123       -0.87107
C         -6.54493       -0.72004       -0.39809
S         -8.09933       -1.46207       -0.71876
C         -8.92908       -0.01161       -0.27716
H        -10.00934        0.02976       -0.31659
C         -8.09410        0.99417        0.09674
C         -8.53418        2.28840        0.50576
N         -8.85433        3.35054        0.84331
C         -6.69560        0.61835        0.03839
C         -5.57794        1.39277        0.34563
H         -5.69194        2.42001        0.67788
C         -4.33382        0.79819        0.20615
S         -2.78131        1.53657        0.52375
C          0.28152        1.19308       -0.24323
C          1.67422        1.18761       -0.22988
C          2.36173        0.03248        0.13896
C          3.78108       -0.37283        0.20522
C          3.74246       -1.84100        0.60178
O          4.65589       -2.61867        0.80182
N          2.41783       -2.17837        0.76036
C          1.96518       -3.49986        1.12371
C          1.59336       -1.10368        0.47074
C          0.21297       -1.11367        0.48240
C          4.93955        0.31800        0.00855
C          4.98774        1.83603       -0.12570
O          4.08286        2.64884       -0.07868
N          6.30781        2.18251       -0.26802
C          6.76377        3.54261       -0.41084
C          7.12304        1.05625       -0.27128
C          8.49546        1.03653       -0.44359
C          9.12806       -0.20658       -0.45070
H         10.20468       -0.25638       -0.58327
C          8.39178       -1.37638       -0.29770
C          7.00870       -1.33903       -0.11994
C          6.34872       -0.10950       -0.09156
H         -0.23282        2.09571       -0.55824
H          2.21783        2.07947       -0.49789
H          2.84675       -4.13511        1.21267
H          1.29729       -3.90033        0.35386
H          1.43620       -3.47666        2.08223
H         -0.33098       -2.00383        0.77485
H          5.88832        4.19037       -0.35582
H          7.26153        3.68347       -1.37633
H          7.46045        3.80153        0.39327
H          9.05686        1.95557       -0.57526
H          8.89525       -2.33745       -0.31207
H          6.45272       -2.25385        0.01022
