42
COMP62_310003.log	Energy: -1526559.9549240
C         -1.54430        0.76663        0.17824
C         -0.09691        0.78376        0.04123
C          0.69620        1.64344       -0.69743
C          0.23296        2.74500       -1.47301
N         -0.14623        3.64289       -2.10011
C          2.06913        1.29605       -0.60790
F          3.00620        1.99672       -1.22613
C          2.32883        0.20073        0.16858
S          0.84831       -0.44344        0.79325
C          3.62556       -0.39509        0.43537
S          4.14158       -0.87862        2.02565
C          5.65569       -1.42292        1.44585
H          6.38455       -1.85191        2.11885
C          5.79087       -1.23614        0.09520
C          6.94692       -1.59079       -0.66158
N          7.88702       -1.88055       -1.27343
C          4.61685       -0.65012       -0.46835
F          4.51309       -0.40070       -1.76376
C         -2.36714       -0.31601        0.16605
C         -2.34041       -1.77476        0.01469
O         -1.42994       -2.56241        0.00760
N         -3.75215       -2.09647       -0.10027
C         -4.36401       -3.35277       -0.26221
O         -5.56254       -3.47172       -0.34338
O         -3.47277       -4.32654       -0.31171
C         -4.02048       -5.63758       -0.48456
C         -4.53540       -0.94121       -0.03361
H         -5.60701       -1.02527       -0.14191
C         -3.72964        0.12451        0.14345
C         -3.75882        1.58554        0.19201
O         -4.66672        2.36842        0.25796
N         -2.34184        1.92744        0.20079
C         -1.84186        3.19543        0.59561
O         -0.85671        3.32296        1.27936
O         -2.58827        4.15813        0.09732
C         -2.13991        5.48599        0.39092
H         -3.16169       -6.30640       -0.47973
H         -4.55512       -5.70272       -1.43454
H         -4.70268       -5.87670        0.33380
H         -2.90440        6.14196       -0.02089
H         -1.17776        5.65968       -0.09538
H         -2.04456        5.62817        1.46913
