30
COMP52_130200.log	Energy: -2222768.7758327
C          0.85213       -0.29676       -0.18033
C         -0.51428        0.18743       -0.14582
C         -0.91503        1.49130       -0.01383
F         -0.06623        2.50889        0.09494
C         -2.31775        1.69865        0.01775
C         -2.90239        2.98859        0.18016
N         -3.36691        4.04250        0.30832
C         -3.00648        0.50588       -0.09045
S         -1.92338       -0.82996       -0.24231
C         -4.44684        0.30116       -0.12082
S         -5.48123        1.36152       -1.01144
C         -6.89058        0.47840       -0.58030
H         -7.87244        0.78236       -0.91175
C         -6.57221       -0.58337        0.20355
F         -7.45272       -1.44357        0.69514
C         -5.17794       -0.70786        0.47963
C         -4.64881       -1.73403        1.31556
N         -4.23245       -2.57555        1.99513
C          1.35104       -1.56505       -0.38273
Cl         0.39203       -2.97094       -0.67024
N          2.69592       -1.71637       -0.35495
C          3.26933       -0.56752       -0.12987
S          2.20269        0.77995        0.06274
C          4.70988       -0.39805       -0.04251
S          5.79739       -1.73507       -0.24060
C          7.10778       -0.65099        0.00976
H          8.13769       -0.97539       -0.00685
C          6.62426        0.60738        0.21839
Cl         7.61698        1.98921        0.51248
N          5.27374        0.75519        0.18959
