32
COMP53_000120.log	Energy: -1126457.3079790
C          0.65441       -0.31291        0.17532
C          2.09340       -0.07927        0.00227
C          2.63353        1.18529        0.26569
C          3.99399        1.42849        0.09857
O          4.60309        2.62087        0.33346
C          3.80037        3.69925        0.75528
C          4.82053        0.39017       -0.33056
H          5.88084        0.58435       -0.45235
C          4.29667       -0.86513       -0.60044
C          2.93019       -1.11281       -0.44756
O          2.33225       -2.29694       -0.72626
C          3.14298       -3.38375       -1.10764
C          0.00696       -1.32072        0.83801
F          0.62748       -2.29409        1.48370
N         -1.34218       -1.30853        0.85801
C         -1.78021       -0.26719        0.20184
S         -0.55391        0.74550       -0.48262
C         -3.19139        0.03640        0.04399
S         -4.41196       -1.00032        0.71421
C         -5.60964        0.06241        0.07837
H         -6.66824       -0.10367        0.20558
C         -4.98833        1.08493       -0.57043
F         -5.62472        2.07768       -1.17365
N         -3.63632        1.08342       -0.59806
H          1.96658        1.96181        0.62345
H          4.47477        4.54849        0.87070
H          3.31549        3.49091        1.71813
H          3.03237        3.94637        0.01062
H          4.96531       -1.64704       -0.94080
H          2.46576       -4.22854       -1.23593
H          3.88167       -3.62603       -0.33315
H          3.66064       -3.18847       -2.05585
