42
COMP73_000020.log	Energy: -1172590.1778737
C         -1.10739       -1.11253       -0.29605
C         -2.36443       -0.40091        0.01225
C         -2.76801        0.65370       -0.81725
C         -3.98180        1.29462       -0.60085
O         -4.45323        2.32635       -1.34866
C         -3.62667        2.82102       -2.37702
C         -4.80875        0.86987        0.44554
H         -5.75755        1.37363        0.59685
C         -4.40447       -0.15947        1.27503
C         -3.18058       -0.80058        1.07206
O         -2.84594       -1.82018        1.92238
C         -1.66093       -1.63629        2.68631
C          0.19688       -0.68305       -0.23082
C          0.64901        0.63360        0.28852
O         -0.12103        1.47646        0.72334
C          2.11438        0.83992        0.25608
C          2.72976        1.99601        0.66418
C          2.12217        3.25209        1.20651
S          4.44380        1.84828        0.47883
C          4.35180        0.23792       -0.14534
C          5.58622       -0.51531       -0.53127
C          3.04202       -0.16245       -0.20723
C          2.59931       -1.48645       -0.68525
O          3.36691       -2.35488       -1.07208
C          1.13141       -1.68786       -0.65817
C          0.52440       -2.85139       -1.02970
H          1.01345       -3.74861       -1.38367
S         -1.17849       -2.74661       -0.87421
H         -2.10596        0.95088       -1.62155
H         -4.16618        3.65774       -2.82246
H         -3.44187        2.06084       -3.14754
H         -2.66602        3.17709       -1.98262
H         -5.02665       -0.48772        2.10089
H         -1.81692       -2.14935        3.63823
H         -1.47291       -0.57228        2.86729
H         -0.78994       -2.07208        2.18402
H          1.37854        3.64652        0.50916
H          2.88275        4.01636        1.38803
H          1.59528        3.04772        2.14289
H          6.48972        0.06572       -0.32799
H          5.55992       -0.76869       -1.59499
H          5.63965       -1.46111        0.01445
