56
COMP87_400000.log	Energy: -1434032.0312240
C         -0.20933        0.47328       -0.25729
C         -1.66867        0.60212       -0.31928
C         -2.39947        1.67091       -0.76923
H         -1.94831        2.56933       -1.17899
C         -3.80251        1.46086       -0.69451
O         -4.73832        2.36408       -1.08935
C         -4.15421        0.22888       -0.18671
S         -2.71699       -0.67140        0.20760
C         -5.45912       -0.35688        0.05247
C         -6.64970        0.20814       -0.24558
C         -7.93096       -0.39626        0.08313
C         -8.26611       -1.14532        1.18950
O         -7.44218       -1.45973        2.22024
C         -9.62886       -1.56390        1.21009
H        -10.05058       -2.15880        2.01051
C        -10.31725       -1.11945        0.12395
H        -11.35761       -1.29258       -0.11376
S         -9.33211       -0.18198       -0.93361
C          0.41709       -0.77230       -0.36717
C          1.80232       -0.90307       -0.32119
C          2.60513        0.22797       -0.17435
C          4.05115        0.47696       -0.02030
C          4.16049        1.97750        0.19936
O          5.14649        2.67516        0.34589
N          2.88174        2.48380        0.15392
C          2.57536        3.88340        0.30752
C          1.95202        1.47269       -0.04617
C          0.58030        1.62081       -0.08352
C          5.13461       -0.34993       -0.06738
C          5.05374       -1.79202       -0.54685
O          4.09847       -2.41936       -0.96638
N          6.32519       -2.30721       -0.48180
C          6.66128       -3.65276       -0.87413
C          7.22201       -1.36450        0.00700
C          8.57148       -1.55886        0.24236
C          9.29693       -0.48975        0.76829
H         10.35864       -0.61062        0.96153
C          8.67058        0.71976        1.04851
C          7.30942        0.90089        0.80201
C          6.55964       -0.14477        0.26133
H         -4.29740        3.16643       -1.39104
H         -5.44888       -1.36043        0.47685
H         -6.66714        1.17105       -0.74762
H         -6.65133       -0.90447        2.15445
H         -0.18415       -1.66325       -0.52055
H          2.25443       -1.87654       -0.42651
H          3.52003        4.41173        0.43937
H          1.94011        4.04699        1.18487
H          2.06493        4.26656       -0.58256
H          0.12088        2.59376        0.05562
H          5.74854       -4.12763       -1.23507
H          7.05466       -4.21700       -0.02162
H          7.40916       -3.64439       -1.67400
H          9.04644       -2.51138        0.03187
H          9.24459        1.54247        1.46238
H          6.84024        1.84911        1.01124
