30
COMP37_120000.log	Energy: -1836970.3005567
C         -3.46033       -0.31072        0.05493
C         -2.06311        0.13555       -0.04028
C         -1.59406        1.38386       -0.34391
Cl        -2.57496        2.74692       -0.72755
C         -0.17577        1.45108       -0.34394
F          0.46523        2.58483       -0.62587
C          0.45266        0.27192       -0.04594
S         -0.74559       -0.95075        0.24696
C          1.86359       -0.05796        0.04081
C          2.87065        0.80988       -0.17292
C          4.28082        0.47552       -0.09001
C          4.90137       -0.70358        0.22721
F          4.25333       -1.82570        0.53839
C          6.32208       -0.64832        0.20262
Cl         7.30977       -2.01485        0.57091
C          6.78639        0.58537       -0.13718
H          7.81632        0.89731       -0.23122
S          5.49174        1.67967       -0.42635
C         -3.96462       -1.29611       -0.79568
F         -3.17641       -1.84693       -1.71803
C         -5.28547       -1.71456       -0.70382
F         -5.72603       -2.65653       -1.53782
C         -6.13976       -1.16092        0.23490
H         -7.17024       -1.48721        0.30499
C         -5.65065       -0.18215        1.08392
F         -6.44644        0.36559        2.00218
C         -4.32849        0.23610        1.00184
F         -3.89226        1.16547        1.84764
H          2.09143       -1.08836        0.29370
H          2.64371        1.84003       -0.42817
