38
COMP77_130001.log	Energy: -1815854.5869701
C          2.03566        1.22827        0.48959
C          0.70507        0.63484        0.56950
C          0.32231       -0.48045        1.28126
C          1.20275       -1.27229        2.07377
N          1.91820       -1.90235        2.73191
C         -1.06892       -0.73593        1.15477
F         -1.63604       -1.77127        1.77100
C         -1.75861        0.15628        0.37719
S         -0.64678        1.34556       -0.23150
C         -3.16533        0.22266        0.02711
C         -4.10440       -0.63909        0.46149
C         -5.51220       -0.57054        0.11247
C         -6.19459        0.30505       -0.68892
F         -5.62371        1.32148       -1.33310
C         -7.59434        0.05751       -0.79642
C         -8.48327        0.85089       -1.58104
N         -9.20488        1.49542       -2.21841
C         -7.96749       -1.03324       -0.05422
H         -8.96156       -1.44485        0.04605
S         -6.63507       -1.73670        0.75345
C          3.22645        0.66222        0.09562
C          3.40097       -0.70462       -0.47572
O          2.47794       -1.47260       -0.67014
C          4.80270       -1.04541       -0.81193
C          5.19603       -2.25612       -1.30626
H          4.56412       -3.10883       -1.51342
S          6.89142       -2.30201       -1.57591
C          7.09382       -0.68666       -1.02830
H          8.06499       -0.21176       -1.00452
C          5.90223       -0.13718       -0.65130
C          5.72947        1.23816       -0.13848
O          6.64493        2.03038       -0.01519
C          4.32603        1.57802        0.21441
C          3.95048        2.80494        0.67845
H          4.59765        3.65549        0.84479
S          2.27153        2.87415        0.99560
H         -3.45073        1.03587       -0.63230
H         -3.81950       -1.45143        1.12212
