58
COMP97_140003.log	Energy: -1840187.7275416
C         -0.81556        0.29017        0.29791
C          0.62894        0.51747        0.41826
C          1.35471        1.28328        1.31046
O          0.88866        2.15953        2.20820
C          2.74913        1.00709        1.23945
F          3.60618        1.65674        2.02845
C          3.12100        0.06534        0.32154
S          1.70325       -0.52085       -0.49373
C          4.43061       -0.42216       -0.06449
C          5.59222       -0.00918        0.47961
C          6.90266       -0.49967        0.10076
C          7.27985       -1.42465       -0.83242
F          6.43593       -2.10388       -1.63316
C          8.67894       -1.66078       -0.93772
O          9.22621       -2.54050       -1.80706
C          9.38142       -0.89226       -0.05853
H         10.45209       -0.86664        0.07852
S          8.33457        0.10607        0.88350
C         -1.20777       -1.08356        0.32487
C         -2.51041       -1.47925        0.23593
C         -2.83020       -2.93017        0.31164
O         -1.99496       -3.79830        0.43671
N         -4.18642       -3.25067        0.22433
C         -4.52794       -4.65811        0.35273
O         -4.75324       -5.18084        1.40331
O         -4.53872       -5.21412       -0.84445
C         -4.86521       -6.60943       -0.85591
C         -5.25107       -2.36578        0.03188
O         -6.38575       -2.77994       -0.06258
C         -4.89113       -0.92540       -0.04363
C         -5.88779        0.00494       -0.24033
H         -6.91516       -0.33021       -0.32963
C         -5.55295        1.36164       -0.33956
C         -4.24063        1.77168       -0.21855
C         -3.94468        3.20941       -0.37665
O         -4.77251        4.06443       -0.60515
N         -2.59654        3.54442       -0.24370
C         -2.28126        4.96594       -0.29468
O         -2.28556        5.66775        0.67204
O         -2.01392        5.30452       -1.54084
C         -1.69749        6.68976       -1.73097
C         -1.53705        2.69699        0.05171
O         -0.43277        3.20494        0.20180
C         -1.82726        1.25083        0.14918
C         -3.19409        0.84317        0.01215
C         -3.54192       -0.52389        0.07391
H          0.29005        2.75753        1.71716
H          4.44367       -1.17651       -0.84465
H          5.57643        0.74396        1.26078
H          8.51240       -2.95532       -2.30891
H         -0.45169       -1.84880        0.46207
H         -4.83510       -6.90359       -1.90348
H         -5.86171       -6.76291       -0.43677
H         -4.13100       -7.16951       -0.27325
H         -6.31367        2.11347       -0.52007
H         -1.52079        6.80178       -2.79903
H         -0.80371        6.94945       -1.15994
H         -2.53497        7.31142       -1.40809
