37
COMP21_000400.log	Energy: -1347443.7690730
C          2.15422        0.47131        0.00235
C          0.70702        0.23047       -0.02184
C         -0.28219        1.15933       -0.16247
H         -0.07281        2.20776       -0.30553
C         -1.61216        0.62080       -0.09653
C         -2.83420        1.30323       -0.20312
C         -2.93811        2.78797       -0.42172
C         -3.97816        0.52003       -0.09284
S         -5.62235        1.12579       -0.18379
C         -6.25738       -0.47850        0.05155
H         -7.32878       -0.62760        0.07380
C         -5.30008       -1.42032        0.19018
H         -5.52669       -2.46807        0.34566
C         -3.95947       -0.88492        0.11231
C         -2.73756       -1.56423        0.21293
C         -2.63084       -3.04990        0.42688
C         -1.59129       -0.78022        0.10757
S          0.04160       -1.39430        0.18429
C          3.11657       -0.60013       -0.10575
N          2.82332       -1.88792       -0.24372
S          4.23254       -2.70238       -0.31596
N          5.27729       -1.45659       -0.17625
C          4.54002       -0.35724       -0.06585
C          5.04666        0.96371        0.08286
H          6.11609        1.14285        0.11204
C          4.12926        1.95775        0.18529
O          4.43278        3.27756        0.33935
C          2.69962        1.72958        0.14800
O          1.92411        2.82697        0.26889
H         -1.95908        3.26568       -0.48804
H         -3.48796        3.26508        0.39876
H         -3.48039        3.00812       -1.34929
H         -3.60786       -3.53532        0.46328
H         -2.11182       -3.27187        1.36710
H         -2.05491       -3.51862       -0.38021
H          5.38841        3.39730        0.39031
H          2.50627        3.59190        0.39471
