29
COMP42_400001.log	Energy: -1309965.5150646
C         -1.77844       -0.45278       -0.16509
C         -0.45603        0.11453       -0.08679
C         -0.03536        1.42711       -0.26948
O         -0.77995        2.50874       -0.49282
C          1.38396        1.55634       -0.26369
H          1.86947        2.51881       -0.37055
C          2.04052        0.37428       -0.07490
S          0.92813       -0.94404        0.10417
C          3.47327        0.14389        0.01351
S          4.59364        1.26649       -0.69466
C          5.94567        0.32752       -0.17072
H          6.95480        0.64967       -0.38873
C          5.54282       -0.79270        0.50042
O          6.32875       -1.75298        1.04758
C          4.12632       -0.90081        0.60855
H          3.63691       -1.71554        1.12914
C         -3.03471        0.06637        0.05482
C         -3.62835        1.32721        0.52267
O         -3.10580        2.39641        0.80057
N         -4.99338        1.08626        0.60264
H         -5.65460        1.79459        0.88838
C         -5.38006       -0.21132        0.21716
O         -6.51054       -0.62720        0.20170
C         -4.09461       -0.86835       -0.12841
C         -3.69097       -2.10652       -0.49253
H         -4.28109       -2.99436       -0.67196
S         -1.96723       -2.13674       -0.64295
H         -1.64330        2.47435       -0.01579
H          7.25490       -1.53079        0.89660
