51
COMP86_000011.log	Energy: -863131.7036011
C          1.00655        0.28055       -0.12218
C          2.48736        0.33530       -0.17695
C          3.25008       -0.73087        0.32045
C          4.63146       -0.66873        0.26681
C          5.65012       -1.67565        0.74884
H          5.55769       -1.86225        1.82599
H          5.53676       -2.64430        0.24650
C          6.96190       -1.00921        0.40246
C          8.25737       -1.46185        0.60209
C          9.32302       -0.66005        0.19293
H         10.34262       -1.00240        0.34313
C          9.09119        0.57793       -0.40777
C          7.79181        1.03628       -0.60993
C          6.72893        0.23621       -0.20206
C          5.27748        0.44893       -0.28301
C          4.53210        1.51244       -0.78109
C          3.14414        1.44741       -0.72302
C          0.32413       -0.90630       -0.41082
C         -1.06289       -0.99521       -0.34749
C         -1.81676        0.12319        0.01541
C         -3.25781        0.42438        0.14126
C         -3.31237        1.90338        0.50941
O         -4.26311        2.62001        0.75206
N         -2.00991        2.32881        0.57844
H         -1.77630        3.27648        0.82839
C         -1.11049        1.31587        0.27715
C          0.26541        1.41841        0.22276
C         -4.37127       -0.35376        0.01598
C         -4.31122       -1.87255       -0.09575
O         -3.35841       -2.62709       -0.08203
N         -5.61145       -2.30222       -0.17170
H         -5.84130       -3.28101       -0.23687
C         -6.51491       -1.24895       -0.14571
C         -7.89173       -1.33005       -0.24816
C         -8.61212       -0.13697       -0.23253
H         -9.69483       -0.16670       -0.31069
C         -7.95386        1.08402       -0.12486
C         -6.56484        1.14810       -0.01893
C         -5.81495       -0.03046       -0.01718
H          2.75257       -1.58735        0.76801
H          8.44286       -2.42507        1.06994
H          9.93227        1.18958       -0.72072
H          7.61588        2.00040       -1.07898
H          5.01885        2.38027       -1.21720
H          2.55415        2.26263       -1.13242
H          0.88961       -1.78191       -0.71405
H         -1.55411       -1.92949       -0.56807
H          0.76233        2.35241        0.46725
H         -8.38892       -2.29012       -0.34476
H         -8.52483        2.00689       -0.11887
H         -6.07049        2.10169        0.07747
