30
COMP52_420000.log	Energy: -2076916.6089579
C          1.63698        0.02229       -0.46917
C          0.22545        0.33912       -0.31861
C         -0.33349        1.54080        0.04139
O          0.30268        2.69040        0.33713
C         -1.76036        1.48873        0.07645
Cl        -2.70814        2.86164        0.51125
C         -2.27400        0.26570       -0.25543
S         -1.00220       -0.85498       -0.61727
C         -3.67627       -0.13483       -0.34227
S         -4.69136        0.42530       -1.63242
C         -6.04631       -0.45809       -1.03211
H         -7.00016       -0.41250       -1.53982
C         -5.73784       -1.15313        0.10040
O         -6.54282       -1.94520        0.84138
C         -4.37364       -0.96559        0.49054
Cl        -3.71720       -1.71304        1.89926
C          2.25182       -0.65557       -1.48913
H          1.73877       -1.03429       -2.36529
N          3.59986       -0.83396       -1.37304
C          4.04386       -0.29315       -0.27490
S          2.83165        0.45092        0.72712
C          5.44303       -0.28617        0.12266
S          6.66665       -1.03013       -0.86209
C          7.83433       -0.54986        0.30791
H          8.88344       -0.77839        0.18538
C          7.22982        0.11903        1.33037
H          7.73757        0.52841        2.19462
N          5.87365        0.26652        1.22170
H          1.24727        2.60042        0.14999
H         -7.42586       -1.95281        0.45371
