48
COMP93_000031.log	Energy: -1025280.2585859
C         -0.18024       -0.04794       -0.22826
C         -1.65941        0.12592       -0.35946
C         -2.46755       -0.80509        0.28656
C         -3.85469       -0.75139        0.16382
C         -4.74932       -1.73098        0.84931
O         -5.95562       -1.72280        0.76215
O         -4.06528       -2.62588        1.57594
C         -4.86192       -3.58951        2.26423
C         -4.44543        0.23677       -0.61967
H         -5.52571        0.26589       -0.70909
C         -3.64718        1.16274       -1.27275
C         -2.25705        1.11662       -1.15422
C         -1.40745        2.12469       -1.85576
O         -0.19718        2.10458       -1.89416
O         -2.13936        3.07228       -2.45623
C         -1.39392        4.06907       -3.15427
C          0.41876       -0.99283       -1.09399
C          1.75827       -1.27342       -1.02843
C          2.34450       -2.26769       -1.96656
O          1.70431       -2.86944       -2.80273
N          3.71122       -2.47530       -1.82453
H          4.12432       -3.14765       -2.46052
C          4.58542       -1.88067       -0.92207
O          5.76460       -2.16540       -0.91671
C          3.96736       -0.89677        0.00722
C          4.75292       -0.25882        0.93952
H          5.81270       -0.48620        0.97965
C          4.17718        0.67196        1.82069
C          2.83049        0.95273        1.75691
C          2.25931        1.94572        2.70146
O          2.90440        2.52929        3.54789
N          0.90091        2.17394        2.55031
H          0.49524        2.86263        3.17339
C          0.01658        1.61123        1.63523
O         -1.14478        1.96268        1.62896
C          0.60079        0.59199        0.71930
C          1.99446        0.31381        0.80472
C          2.57971       -0.62353       -0.07623
H         -2.01311       -1.57679        0.89787
H         -4.15760       -4.21814        2.80782
H         -5.44052       -4.18574        1.55461
H         -5.54774       -3.09423        2.95554
H         -4.09830        1.93481       -1.88398
H         -2.13423        4.76309       -3.55041
H         -0.81757        3.61744       -3.96531
H         -0.71137        4.58262       -2.47346
H         -0.18873       -1.50400       -1.83370
H          4.77944        1.18561        2.56242
