39
COMP25_000320.log	Energy: -974849.2632546
C          1.87690       -0.30683       -0.09694
C          0.42404       -0.55814       -0.21291
C         -0.46555        0.26034        0.48319
C         -1.81967        0.00202        0.33372
N         -2.89707        0.64122        0.91170
O         -2.80461        1.83668        1.56964
C         -2.74242        2.91936        0.63434
C         -4.08160        0.11338        0.43237
C         -5.39366        0.49191        0.70414
C         -6.40003       -0.24526        0.09606
H         -7.43664        0.01740        0.28423
C         -6.10938       -1.32817       -0.74908
C         -4.79691       -1.69341       -1.01090
C         -3.76270       -0.96274       -0.42299
C         -2.31575       -1.03261       -0.48899
C         -1.40827       -1.84389       -1.16854
C         -0.05038       -1.60277       -1.03062
C          2.40267        1.01726       -0.29275
N          1.68355        2.10411       -0.58427
S          2.73551        3.33220       -0.71910
N          4.13295        2.56023       -0.42562
C          3.81290        1.28380       -0.20555
C          4.73165        0.23967        0.08013
H          5.79368        0.44212        0.14468
C          4.22452       -1.01480        0.26853
C          5.13295       -2.08861        0.56259
N          5.88986       -2.93398        0.79511
C          2.80283       -1.29031        0.18755
C          2.37966       -2.63646        0.45600
N          2.07211       -3.73016        0.68315
H         -0.12064        1.06289        1.12427
H         -2.70295        3.82195        1.24575
H         -3.63550        2.93209        0.00054
H         -1.84222        2.84407        0.01453
H         -5.60940        1.31963        1.37095
H         -6.92407       -1.88437       -1.20146
H         -4.57529       -2.53093       -1.66591
H         -1.75578       -2.64791       -1.80967
H          0.65702       -2.21798       -1.57607
