60
COMP97_430003.log	Energy: -1831406.6655793
C          0.92560        0.04302        0.21391
C         -0.50670        0.15043        0.56391
C         -1.03627        0.64536        1.73012
C         -0.27793        1.23280        2.78162
N          0.28475        1.72455        3.66927
C         -2.46444        0.55845        1.77342
O         -3.23084        0.97046        2.80171
C         -3.00332       -0.01186        0.64608
S         -1.73904       -0.44980       -0.46917
C         -4.41543       -0.20766        0.39631
C         -4.96227       -0.71247       -0.72663
C         -6.38785       -0.94477       -0.90185
C         -7.29937       -1.36255        0.03894
O         -7.05648       -1.66331        1.32946
C         -8.62543       -1.50174       -0.48835
C         -9.74777       -1.92129        0.28689
N        -10.66665       -2.26204        0.90553
C         -8.68932       -1.19624       -1.82205
H         -9.56819       -1.21720       -2.45071
S         -7.16458       -0.74440       -2.44989
C          1.49720       -1.25094        0.23332
C          2.83266       -1.44120       -0.01457
C          3.38844       -2.82015        0.02028
O          2.72428       -3.80463        0.25852
N          4.75526       -2.92377       -0.24340
C          5.30652       -4.26938       -0.29038
O          5.31963       -4.93096       -1.28542
O          5.76087       -4.59637        0.90405
C          6.34324       -5.90376        0.98681
C          5.64928       -1.87830       -0.49629
O          6.82400       -2.10440       -0.68584
C          5.05854       -0.51475       -0.51791
C          5.86862        0.56781       -0.76945
H          6.92654        0.40505       -0.94433
C          5.32030        1.86292       -0.79780
C          3.97522        2.05608       -0.58163
C          3.43615        3.43714       -0.62400
O          4.11680        4.42444       -0.79370
N          2.05467        3.54015       -0.46053
C          1.48138        4.86922       -0.61638
O          1.20635        5.33828       -1.68034
O          1.33653        5.41936        0.57333
C          0.75283        6.72824        0.56470
C          1.14372        2.51021       -0.22146
O         -0.04003        2.76175       -0.16128
C          1.72461        1.14039       -0.08379
C          3.11473        0.95969       -0.31771
C          3.67328       -0.33795       -0.28352
H         -2.68425        1.40053        3.47392
H         -5.05768        0.14005        1.20369
H         -4.31986       -0.98012       -1.56571
H         -6.09913       -1.72595        1.46188
H          0.87715       -2.11202        0.46149
H          6.68349       -6.00411        2.01575
H          7.17988       -5.98358        0.28995
H          5.59316       -6.66098        0.74979
H          5.94520        2.72801       -0.99178
H          0.68989        7.02182        1.61086
H         -0.23943        6.69005        0.11072
H          1.38865        7.41625        0.00397
