43
COMP21_400230.log	Energy: -2160773.8425832
C          2.55016       -0.14639       -0.08539
C          1.07915       -0.17284       -0.09632
C          0.25494        0.87020       -0.40507
O          0.64537        2.08178       -0.86274
C         -1.14803        0.55224       -0.27159
C         -2.24809        1.38843       -0.48776
C         -2.13153        2.85573       -0.76538
O         -2.62759        3.40611       -1.71941
O         -1.49633        3.49213        0.22313
C         -1.31466        4.89207        0.01624
C         -3.51579        0.82162       -0.40389
S         -5.02555        1.63957       -0.73356
C         -5.91419        0.19522       -0.33246
H         -6.99185        0.18715       -0.43389
C         -5.12695       -0.84881        0.01903
O         -5.52041       -2.11360        0.29187
C         -3.71679       -0.51627        0.01931
C         -2.61624       -1.31986        0.34605
C         -2.76878       -2.64203        1.03281
O         -3.43125       -2.82812        2.02121
O         -2.00535       -3.58048        0.45172
C         -1.99102       -4.84756        1.11069
C         -1.34373       -0.78732        0.13434
S          0.17857       -1.60603        0.38731
C          3.22310        0.94325        0.57080
N          2.62800        2.00846        1.11284
S          3.80796        2.94928        1.72892
N          5.10598        2.06055        1.33691
C          4.65151        0.98274        0.69631
C          5.44893       -0.05791        0.15606
H          6.52621       -0.03610        0.26081
C          4.81146       -1.06420       -0.50230
Cl         5.78054       -2.32890       -1.18960
C          3.37102       -1.10805       -0.63944
Cl         2.69377       -2.40530       -1.56316
H          1.25801        2.45410       -0.20282
H         -0.81178        5.25757        0.91109
H         -2.27802        5.39048       -0.11323
H         -0.69960        5.06489       -0.87065
H         -6.48333       -2.16005        0.26497
H         -1.32530       -5.47509        0.51970
H         -2.99704       -5.27203        1.13960
H         -1.61677       -4.74193        2.13179
