40
COMP92_210001.log	Energy: -1988158.3628948
C          1.11429       -0.16583        0.08472
C         -0.34538       -0.03398        0.28695
C         -1.00831        0.14476        1.46310
Cl        -0.25012        0.33247        2.99925
C         -2.41971        0.21434        1.29120
F         -3.24115        0.41560        2.31070
C         -2.83156        0.06907       -0.00080
S         -1.45219       -0.16489       -1.03494
C         -4.19472        0.07667       -0.49980
S         -4.67808        0.96701       -1.91406
C         -6.31240        0.44674       -1.76845
H         -7.06015        0.75541       -2.48444
C         -6.48799       -0.35201       -0.68149
Cl        -7.98543       -1.06093       -0.20144
C         -5.27510       -0.56300        0.03649
F         -5.21784       -1.33138        1.11462
C          1.63988       -1.47774        0.02543
C          2.98385       -1.69940       -0.13434
C          3.49317       -3.09744       -0.19429
O          2.78226       -4.07600       -0.11715
N          4.86830       -3.21687       -0.35008
H          5.22790       -4.16381       -0.39203
C          5.81484       -2.20447       -0.45618
O          6.99210       -2.46060       -0.59122
C          5.27377       -0.81908       -0.39193
C          6.13558        0.24828       -0.48477
H          7.19690        0.05915       -0.60419
C          5.63550        1.56137       -0.42422
C          4.28665        1.78829       -0.27673
C          3.79724        3.18956       -0.21755
O          4.51799        4.16254       -0.28415
N          2.42412        3.31929       -0.08272
H          2.06827        4.26832       -0.05992
C          1.45501        2.32532       -0.00847
O          0.28418        2.63001        0.05693
C          1.97091        0.92063       -0.02824
C          3.37009        0.70798       -0.18020
C          3.88027       -0.60987       -0.23600
H          0.97084       -2.32768        0.11328
H          6.30152        2.41494       -0.49175
