31
COMP27_200200.log	Energy: -2358020.4471352
C         -2.63824       -0.04249        0.06903
C         -1.25422       -0.47952        0.30559
C         -0.83772       -1.59736        0.97131
H         -1.50575       -2.31773        1.42552
C          0.57448       -1.70617        1.00378
Cl         1.36840       -3.02930        1.79793
C          1.24443       -0.68684        0.36792
S          0.09578        0.44155       -0.28009
C          2.67950       -0.53263        0.23489
C          3.28710        0.53053       -0.32239
C          4.71380        0.74396       -0.49531
C          5.82775       -0.03152       -0.26348
Cl         5.80532       -1.65139        0.35971
C          7.06350        0.59364       -0.59035
H          8.02424        0.11085       -0.46401
C          6.88677        1.85265       -1.07525
H          7.64541        2.55105       -1.39931
S          5.22464        2.28324       -1.13508
C         -3.05049        1.27151        0.47981
N         -2.27223        2.17815        1.07065
S         -3.20430        3.48242        1.33563
N         -4.61876        2.96102        0.72697
C         -4.39881        1.72227        0.28517
C         -5.35931        0.86995       -0.31941
H         -6.37833        1.20686       -0.46245
C         -4.95709       -0.37131       -0.70819
Cl        -6.12780       -1.41597       -1.45154
C         -3.59773       -0.83201       -0.52550
Cl        -3.18930       -2.41268       -1.10935
H          3.26124       -1.35712        0.63020
H          2.66721        1.34735       -0.69102
