62
COMP81_300020.log	Energy: -1598338.7915674
C          0.11435        0.01466        0.12123
C         -1.35539        0.02730        0.08849
C         -2.21337       -0.98389       -0.26903
C         -1.76455       -2.26993       -0.69686
N         -1.38081       -3.32002       -1.00725
C         -3.61012       -0.60220       -0.20116
C         -4.75333       -1.35335       -0.49423
O         -4.68023       -2.63965       -0.93341
C         -4.65083       -3.62148        0.10192
C         -5.98592       -0.72283       -0.36559
S         -7.53374       -1.46428       -0.69729
C         -8.35395       -0.00713       -0.26280
H         -9.43391        0.04108       -0.30615
C         -7.52096        1.00453        0.10585
C         -8.00914        2.29243        0.48471
N         -8.42976        3.33546        0.76668
C         -6.12349        0.62065        0.05172
C         -4.98088        1.37145        0.34555
O         -5.05978        2.65672        0.78611
C         -5.06969        3.64152       -0.24725
C         -3.74951        0.74172        0.21328
S         -2.20552        1.48174        0.54161
C          0.83847        1.14940       -0.25923
C          2.23094        1.16332       -0.24807
C          2.93414        0.02676        0.14779
C          4.35853       -0.35888        0.21796
C          4.33980       -1.81933        0.64425
O          5.26394       -2.58191        0.85358
N          3.02042       -2.16867        0.81786
C          2.58432       -3.49009        1.20126
C          2.18129       -1.11067        0.50809
C          0.80123       -1.13828        0.52464
C          5.50688        0.34332        0.00352
C          5.53370        1.85868       -0.15940
O          4.61813        2.66009       -0.12317
N          6.84842        2.22035       -0.31429
C          7.28514        3.58400       -0.48079
C          7.67909        1.10550       -0.29917
C          9.05089        1.10089       -0.47729
C          9.70014       -0.13358       -0.46284
H         10.77681       -0.17144       -0.59910
C          8.98043       -1.30993       -0.28359
C          7.59762       -1.28780       -0.10070
C          6.92141       -0.06691       -0.09345
H         -4.49385       -4.57833       -0.39511
H         -5.59906       -3.63420        0.65235
H         -3.82530       -3.43669        0.79732
H         -5.22082        4.59870        0.25087
H         -5.89100        3.46711       -0.95025
H         -4.11641        3.64643       -0.78893
H          0.31180        2.03691       -0.59579
H          2.76216        2.05544       -0.53908
H          3.47264       -4.11625        1.28772
H          1.91142       -3.90435        0.44310
H          2.06581       -3.46098        2.16536
H          0.27003       -2.02880        0.83715
H          6.40114        4.22049       -0.43080
H          7.77586        3.71690       -1.45104
H          7.98257        3.86461        0.31535
H          9.59932        2.02462       -0.62936
H          9.49680       -2.26426       -0.28121
H          7.05433       -2.20718        0.04963
