36
COMP72_440001.log	Energy: -1715825.8702165
C         -0.93553        0.86239       -0.43966
C          0.31931        0.15107       -0.36398
C          0.67166       -1.08943       -0.85234
O         -0.09473       -2.02088       -1.44063
C          2.06579       -1.35571       -0.75173
O          2.58809       -2.52707       -1.17701
C          2.79448       -0.33792       -0.19633
S          1.74203        0.98863        0.23345
C          4.21357       -0.31490        0.07457
S          5.25952       -1.67255       -0.27951
C          6.65102       -0.83134        0.31198
H          7.62338       -1.30407        0.29614
C          6.32926        0.41303        0.75366
O          7.11975        1.38702        1.28836
C          4.94106        0.71111        0.61955
O          4.40821        1.89641        0.99815
C         -2.26502        0.48044       -0.27015
C         -2.76331       -0.83842        0.12291
O         -2.07013       -1.85538        0.22103
C         -4.20879       -0.90999        0.42310
C         -4.84359       -2.04035        0.85606
H         -4.39379       -3.00347        1.05363
S         -6.52617       -1.77146        1.06601
C         -6.39906       -0.13246        0.56340
H         -7.26141        0.51853        0.51988
C         -5.11019        0.19066        0.25370
C         -4.64366        1.51558       -0.20427
O         -5.38876        2.46388       -0.37367
C         -3.17676        1.59572       -0.40983
C         -2.55143        2.76998       -0.68395
H         -3.02453        3.73365       -0.81409
S         -0.85293        2.57322       -0.78987
H         -0.93052       -2.07796       -0.91237
H          1.84194       -3.06543       -1.48575
H          8.03162        1.07942        1.33903
H          5.12189        2.44552        1.35250
