36
COMP45_000010.log	Energy: -871671.6755343
C          1.51575        1.04317       -0.05828
C          0.05241        0.92969       -0.00286
C         -0.55250       -0.31185       -0.20735
C         -1.93946       -0.37746       -0.14874
N         -2.76204       -1.47414       -0.31119
H         -2.44381       -2.41463       -0.47449
C         -4.07959       -1.08489       -0.16913
C         -5.24462       -1.84826       -0.24650
C         -6.45367       -1.19344       -0.06427
H         -7.37746       -1.76162       -0.11920
C         -6.50976        0.18651        0.18864
C         -5.34785        0.93914        0.26497
C         -4.11672        0.30414        0.08622
C         -2.74261        0.75637        0.09967
C         -2.12292        1.99027        0.30384
C         -0.74299        2.06979        0.25571
C          2.51196        0.09741       -0.01734
C          2.65183       -1.37915        0.10313
O          1.81667       -2.25776        0.15718
N          4.03266       -1.61810        0.13168
C          4.61411       -2.93773        0.24303
C          4.81100       -0.46021        0.02003
O          6.01931       -0.43847        0.01366
C          3.82523        0.64123       -0.07833
C          3.87116        1.98978       -0.18065
H          4.73169        2.64146       -0.23947
S          2.26551        2.62299       -0.20935
H          0.04505       -1.19914       -0.38339
H         -5.20714       -2.91573       -0.44159
H         -7.47390        0.66571        0.32549
H         -5.39313        2.00673        0.46045
H         -2.71233        2.87908        0.50793
H         -0.26971        3.02954        0.43921
H          3.79668       -3.65665        0.30428
H          5.23465       -3.00152        1.14042
H          5.23448       -3.15256       -0.63086
