50
COMP97_020000.log	Energy: -1961536.5120696
C          1.39704       -0.13398        0.14992
C         -0.04954       -0.05530        0.44813
C         -0.64733        0.17131        1.65409
Cl         0.24432        0.50242        3.10510
C         -2.06554        0.15687        1.61791
H         -2.68488        0.35935        2.48274
C         -2.55088       -0.10396        0.36373
S         -1.24802       -0.31889       -0.76712
C         -3.92907       -0.21547       -0.08991
C         -4.97669       -0.41903        0.72575
C         -6.36346       -0.45876        0.28540
C         -6.91756       -0.02451       -0.89135
H         -6.36556        0.46584       -1.68348
C         -8.31761       -0.26132       -0.94464
Cl        -9.28709        0.18664       -2.31370
C         -8.82552       -0.85433        0.17203
H         -9.85242       -1.12418        0.37098
S         -7.58083       -1.14317        1.32274
C          1.97120       -1.42711        0.09685
C          3.31315       -1.60640       -0.12829
C          3.87119       -2.98612       -0.17460
O          3.16896       -3.96689       -0.03269
N          5.24789       -3.09348       -0.39058
C          5.84606       -4.42616       -0.44398
C          6.12334       -2.02033       -0.56643
O          7.30814       -2.21572       -0.75211
C          5.53945       -0.65366       -0.51649
C          6.35420        0.44350       -0.67772
H          7.41578        0.29150       -0.83937
C          5.80673        1.73828       -0.62801
C          4.45688        1.92081       -0.42469
C          3.92048        3.30540       -0.37304
O          4.63811        4.27895       -0.49309
N          2.54469        3.42498       -0.18517
C          1.95906        4.76429       -0.15349
C          1.64130        2.36536       -0.05739
O          0.45466        2.60370        0.03006
C          2.20423        0.98018       -0.04561
C          3.59609        0.80970       -0.25921
C          4.15320       -0.48704       -0.30278
H         -4.09602       -0.12755       -1.16153
H         -4.80069       -0.57480        1.78828
H          1.34100       -2.29745        0.24692
H          5.05462       -5.15444       -0.28418
H          6.61095       -4.51632        0.32961
H          6.31569       -4.58017       -1.41744
H          6.43609        2.61347       -0.74674
H          2.76678        5.48365       -0.26372
H          1.44042        4.91455        0.79519
H          1.23724        4.87156       -0.96529
