62
COMP85_000022.log	Energy: -1088614.3049802
C         -1.16095        0.48570       -0.25429
C         -2.64206        0.55576       -0.28772
C         -3.39950       -0.47665        0.26573
C         -4.78352       -0.36913        0.20409
N         -5.74936       -1.22757        0.68883
O         -5.48811       -2.48459        1.15866
C         -5.39358       -3.41412        0.07509
C         -7.01204       -0.76744        0.36936
C         -8.25500       -1.34301        0.61822
C         -9.37305       -0.63713        0.19529
H        -10.35982       -1.05541        0.36975
C         -9.25558        0.60497       -0.44733
C         -8.00916        1.16677       -0.68748
C         -6.86567        0.47484       -0.28525
C         -5.44125        0.72886       -0.39032
C         -4.66801        1.75759       -0.92859
C         -3.28595        1.66425       -0.87622
C         -0.49572       -0.72450       -0.48277
C          0.89260       -0.82386       -0.45733
C          1.66219        0.31056       -0.19256
C          3.10707        0.61354       -0.14180
C          3.18395        2.12996       -0.00976
O          4.12393        2.89406       -0.05687
N          1.88919        2.53376        0.24757
O          1.52330        3.84828        0.13255
C          1.70072        4.51803        1.38129
C          0.96740        1.51693        0.01882
C         -0.40446        1.63807       -0.00057
C          4.20811       -0.18803       -0.10131
C          4.11676       -1.70140        0.04481
O          3.17383       -2.46066       -0.04869
N          5.39889       -2.10880        0.32870
O          5.75247       -3.41980        0.45071
C          5.83781       -4.04430       -0.83493
C          6.33443       -1.08989        0.19271
C          7.70686       -1.20525        0.28068
C          8.45426       -0.04446        0.07848
H          9.53745       -0.09170        0.13900
C          7.82508        1.16391       -0.20335
C          6.43416        1.25649       -0.27957
C          5.65620        0.11794       -0.06442
H         -2.93054       -1.32079        0.76036
H         -5.18259       -4.37687        0.54242
H         -4.57918       -3.13641       -0.60246
H         -6.33855       -3.46150       -0.47644
H         -8.33679       -2.29677        1.12826
H        -10.15240        1.13082       -0.75920
H         -7.92259        2.12790       -1.18604
H         -5.14069        2.61634       -1.39626
H         -2.68136        2.44734       -1.32328
H         -1.07661       -1.61076       -0.71832
H          1.37280       -1.77057       -0.64809
H          1.33041        5.53013        1.21150
H          2.75990        4.54620        1.65082
H          1.11716        4.02989        2.16895
H         -0.87284        2.59777        0.18548
H          6.19272       -5.05568       -0.63323
H          6.55459       -3.51516       -1.47262
H          4.85314       -4.07906       -1.30818
H          8.16837       -2.16188        0.49749
H          8.41986        2.05605       -0.37032
H          5.96063        2.20018       -0.50038
