36
COMP47_040000.log	Energy: -1383182.0091594
C         -2.43887        0.71722        0.11772
C         -1.09819        0.19011        0.14734
C         -0.63367       -1.04484        0.59163
O         -1.34771       -2.07730        1.03910
C          0.78687       -1.12359        0.61850
H          1.29678       -2.01285        0.96770
C          1.41055        0.01468        0.18525
S          0.25114        1.22251       -0.27082
C          2.82709        0.30020        0.03010
C          3.79665       -0.62905        0.09441
C          5.21866       -0.35478       -0.01551
C          5.88680        0.84501        0.00683
H          5.39577        1.80270        0.14687
C          7.29479        0.69621       -0.14614
O          8.19106        1.71626       -0.15765
C          7.68468       -0.60818       -0.27645
H          8.69084       -0.98011       -0.40054
S          6.33250       -1.66961       -0.21612
C         -3.67652        0.12448        0.01300
C         -4.23175       -1.22034       -0.19152
O         -3.66609       -2.30443       -0.25054
N         -5.60614       -1.05777       -0.31545
C         -6.53685       -2.14623       -0.52700
C         -6.02118        0.28175       -0.19704
O         -7.16816        0.65025       -0.26644
C         -4.76543        1.04090        0.00921
C         -4.40568        2.33956        0.11446
H         -5.02696        3.22431        0.11239
S         -2.68351        2.45738        0.24773
H         -2.20995       -2.16659        0.56687
H          3.09173        1.33848       -0.15856
H          3.51998       -1.67280        0.22939
H          7.72090        2.55117       -0.05542
H         -5.97482       -3.07960       -0.48938
H         -7.02245       -2.04473       -1.50082
H         -7.30157       -2.13713        0.25279
