55
COMP96_000021.log	Energy: -1051912.0307562
C         -0.94617       -0.43800       -0.43368
C          0.52742       -0.58075       -0.58301
C          1.39659       -0.04274        0.37604
C          2.75336       -0.24454        0.24016
C          3.89729        0.25188        1.13648
O          3.82930        1.62565        1.42297
C          3.70930        2.48283        0.30335
O          3.99321       -0.41260        2.35845
C          2.89639       -0.27013        3.23883
C          5.12043       -0.16496        0.32653
C          6.44969        0.07430        0.61988
C          7.41963       -0.42223       -0.25328
H          8.47144       -0.24572       -0.04922
C          7.04996       -1.14549       -1.38741
C          5.70656       -1.38446       -1.67721
C          4.74397       -0.88451       -0.80967
C          3.27087       -0.93715       -0.86389
C          2.41800       -1.48957       -1.80632
C          1.04231       -1.32149       -1.64716
C         -1.67468       -1.64083       -0.25039
C         -3.02921       -1.64316       -0.04782
C         -3.73724       -2.93756        0.14919
O         -3.18784       -4.01829        0.12574
N         -5.10494       -2.83216        0.36786
H         -5.59940       -3.70628        0.50535
C         -5.88268       -1.68138        0.42215
O         -7.07693       -1.74509        0.62363
C         -5.14616       -0.40484        0.21577
C         -5.83582        0.78493        0.24737
H         -6.90581        0.76920        0.42411
C         -5.14924        1.99387        0.04905
C         -3.79081        1.99769       -0.17722
C         -3.11009        3.29831       -0.39242
O         -3.67104        4.37399       -0.36360
N         -1.75208        3.20234       -0.64538
H         -1.27534        4.07542       -0.84008
C         -0.95310        2.06583       -0.73410
O          0.21031        2.18682       -1.05473
C         -1.63671        0.76956       -0.43511
C         -3.04716        0.78833       -0.21076
C         -3.74750       -0.42398       -0.01121
H          1.00184        0.55104        1.19480
H          3.78675        3.49926        0.69369
H          2.74537        2.35982       -0.20464
H          4.51966        2.31466       -0.41837
H          3.22754       -0.67379        4.19734
H          2.02813       -0.84644        2.89310
H          2.61659        0.78081        3.36424
H          6.72300        0.63477        1.50844
H          7.81743       -1.52458       -2.05577
H          5.42623       -1.94457       -2.56489
H          2.80448       -2.03154       -2.66430
H          0.36102       -1.74195       -2.38191
H         -1.14450       -2.58786       -0.25235
H         -5.67252        2.94386        0.06866
