33
COMP42_130002.log	Energy: -1527611.8039855
C         -1.80017        1.27208        0.05974
C         -0.35250        1.19237        0.01106
C          0.53503        2.22781        0.14081
F          0.16142        3.49006        0.32455
C          1.90446        1.86484        0.08488
C          2.96231        2.80847        0.23426
N          3.81504        3.58421        0.35293
C          2.05183        0.50140       -0.08752
S          0.52607       -0.29566       -0.20331
C          3.29084       -0.25471       -0.20117
S          4.59431        0.30325       -1.18846
C          5.56753       -1.06156       -0.81180
H          6.56248       -1.17637       -1.21566
C          4.91206       -1.90366        0.02757
F          5.41498       -3.03693        0.49624
C          3.60436       -1.46398        0.39126
C          2.77420       -2.18379        1.29974
N          2.11316       -2.77777        2.04355
C         -2.74541        0.29702       -0.11455
C         -2.77145       -1.15223       -0.42516
O         -1.87546       -1.93484       -0.63164
N         -4.13887       -1.46500       -0.41386
O         -4.59245       -2.68178       -0.81158
C         -4.73349       -3.56015        0.30957
C         -5.01445       -0.38550       -0.18049
O         -6.21506       -0.44665       -0.15140
C         -4.08261        0.75375        0.02532
C         -4.18414        2.07537        0.30491
H         -5.07279        2.67283        0.45552
S         -2.61536        2.78945        0.40078
H         -5.10506       -4.49287       -0.11541
H         -5.45979       -3.15783        1.02217
H         -3.76475       -3.72565        0.79007
