44
COMP71_400021.log	Energy: -1812958.2166206
C          1.53654        1.20954       -0.31098
C          0.18271        0.74346       -0.08543
C         -0.42183       -0.42098       -0.50367
O          0.17542       -1.44887       -1.10581
C         -1.85513       -0.42669       -0.28994
C         -2.79797       -1.42000       -0.59017
O         -2.49216       -2.60916       -1.17631
C         -1.91864       -3.57164       -0.29728
C         -4.13037       -1.14895       -0.29834
S         -5.44575       -2.25802       -0.59786
C         -6.57778       -1.11242        0.07601
H         -7.63014       -1.36170        0.12338
C         -5.99993        0.04003        0.49307
O         -6.62108        1.11062        1.05024
C         -4.56691        0.06154        0.28812
C         -3.62255        1.04996        0.59445
O         -3.93750        2.23373        1.19379
C         -4.44766        3.22152        0.30459
C         -2.29435        0.78301        0.29127
S         -0.98047        1.88112        0.61620
C          2.79068        0.61168       -0.21924
C          3.08847       -0.74805        0.23687
O          2.23612       -1.61386        0.45363
C          4.51892       -1.05555        0.43609
C          4.98573       -2.24850        0.91270
H          4.39698       -3.10067        1.22289
S          6.70105       -2.26892        0.97336
C          6.81314       -0.67249        0.34617
H          7.76773       -0.19152        0.18298
C          5.57694       -0.14660        0.10783
C          5.30754        1.20504       -0.42507
O          6.18665        1.99044       -0.72974
C          3.86364        1.53306       -0.52272
C          3.42555        2.77938       -0.83997
H          4.04242        3.63294       -1.08651
S          1.71779        2.88445       -0.78160
H          1.04049       -1.58871       -0.64856
H         -1.77005       -4.47299       -0.89312
H         -2.60067       -3.78843        0.53398
H         -0.95498       -3.22492        0.08611
H         -7.56439        0.92105        1.12111
H         -4.59896        4.12036        0.90387
H         -5.40291        2.90389       -0.12457
H         -3.72747        3.43104       -0.49588
