40
COMP51_400220.log	Energy: -2268423.0135389
C         -1.30317       -0.53197        0.37569
C          0.13748       -0.39027        0.19843
C          0.89778        0.60844        0.72629
O          0.45332        1.60979        1.51463
C          2.29335        0.52268        0.36225
C          3.36828        1.34905        0.71112
O          3.24604        2.43983        1.51822
C          2.75748        3.60508        0.86093
C          4.62508        1.00694        0.22671
S          6.08306        1.91366        0.54492
C          7.00294        0.79802       -0.43506
H          8.06651        0.95060       -0.56579
C          6.25698       -0.20289       -0.96095
O          6.69065       -1.21460       -1.75490
C          4.85830       -0.12253       -0.59288
C          3.78227       -0.94990       -0.93886
O          3.89800       -2.04277       -1.74499
C          4.39437       -3.20663       -1.09109
C          2.52447       -0.60671       -0.45693
S          1.07033       -1.51545       -0.78495
C         -2.00678       -1.31939        1.25299
Cl        -1.26239       -2.36429        2.40577
N         -3.36143       -1.25489        1.20503
C         -3.73256       -0.41052        0.28090
S         -2.45157        0.35359       -0.59264
C         -5.12814       -0.11251       -0.00334
S         -6.41468       -0.88997        0.86224
C         -7.53620        0.01391       -0.07665
H         -8.60430       -0.08085        0.05046
C         -6.85803        0.81368       -0.94857
Cl        -7.61652        1.88377       -2.07257
N         -5.50113        0.74616       -0.91122
H         -0.48138        1.45667        1.71297
H          2.76653        4.39913        1.60849
H          1.73432        3.45234        0.50410
H          3.41040        3.87995        0.02374
H          7.63715       -1.10714       -1.90783
H          4.36512       -4.00517       -1.83353
H          3.75772       -3.47343       -0.23871
H          5.42544       -3.05619       -0.75759
