25
COMP24_200400.log	Energy: -1778502.6615929
C         -1.38611       -0.22786        0.24468
C          0.07482       -0.19924        0.10403
C          0.86896       -1.06565       -0.59327
Cl         0.28975       -2.39113       -1.53867
C          2.25156       -0.74762       -0.48765
S          3.71826       -1.41522       -1.11810
C          4.64682       -0.18149       -0.32092
H          5.72337       -0.16248       -0.41458
C          3.87130        0.68549        0.38343
Cl         4.47935        2.02663        1.29240
C          2.48537        0.36533        0.29242
S          1.02000        1.03951        0.90655
C         -2.20823        0.84634       -0.23687
N         -1.77243        1.94917       -0.83551
S         -3.09235        2.84023       -1.19142
N         -4.26120        1.86320       -0.60218
C         -3.64299        0.79853       -0.10336
C         -4.27327       -0.32162        0.51476
H         -5.35366       -0.35448        0.61101
C         -3.47104       -1.31959        0.96618
O         -3.90306       -2.45347        1.58220
C         -2.02613       -1.28036        0.84602
O         -1.33031       -2.31024        1.35304
H         -4.86521       -2.45305        1.65166
H         -1.95771       -2.95605        1.71106
