62
COMP91_000023.log	Energy: -1764267.5409967
C         -0.45951       -0.05865        0.08641
C          0.99801       -0.30283        0.13541
C          1.71909       -1.00341       -0.77188
H          1.30692       -1.39060       -1.69630
C          3.10377       -1.13486       -0.40380
C          4.13462       -1.77181       -1.10012
O          3.90643       -2.37904       -2.30501
C          3.45420       -3.72268       -2.18512
C          5.40579       -1.75517       -0.54015
S          6.84752       -2.46630       -1.22529
C          7.78446       -1.93430        0.14722
H          8.84045       -2.16733        0.18565
C          7.06685       -1.25282        1.06709
H          7.47722       -0.85526        1.98703
C          5.67913       -1.12512        0.69858
C          4.64650       -0.49053        1.39558
O          4.87101        0.12008        2.59901
C          5.28513        1.47711        2.47453
C          3.37641       -0.50831        0.83560
S          1.93965        0.19796        1.52947
C         -1.29080       -1.20320        0.17766
C         -2.65788       -1.09856        0.19109
C         -3.48194       -2.33227        0.27466
O         -3.01964       -3.45207        0.29426
N         -4.86351       -2.13020        0.33067
C         -5.68624       -3.32149        0.45705
O         -6.01019       -3.78311        1.51058
O         -5.98939       -3.77021       -0.74730
C         -6.80328       -4.94908       -0.76237
C         -5.54261       -0.90918        0.27160
O         -6.75375       -0.87707        0.29195
C         -4.68600        0.30136        0.18222
C         -5.27688        1.54305        0.13565
H         -6.35842        1.61463        0.17406
C         -4.47743        2.69539        0.04213
C         -3.10561        2.59026       -0.01271
C         -2.30081        3.83131       -0.11902
O         -2.77509        4.94717       -0.13224
N         -0.92528        3.63770       -0.21890
C         -0.11196        4.83257       -0.36955
O          0.42977        5.37404        0.54793
O         -0.08908        5.18623       -1.64150
C          0.67299        6.36530       -1.92465
C         -0.23379        2.41958       -0.26248
O          0.95070        2.41981       -0.51042
C         -1.05062        1.19596       -0.01438
C         -2.46720        1.32454        0.03444
C         -3.27718        0.17115        0.13779
H          3.33240       -4.10001       -3.20154
H          2.49306       -3.77006       -1.65800
H          4.18674       -4.33882       -1.65006
H          5.40160        1.85857        3.48998
H          4.53268        2.07149        1.94284
H          6.24190        1.54793        1.94255
H         -0.83416       -2.18442        0.25137
H         -6.96475       -5.17379       -1.81511
H         -7.75177       -4.75569       -0.25716
H         -6.28220       -5.76988       -0.26512
H         -4.92507        3.68273        0.00934
H          0.56840        6.52534       -2.99623
H          1.71947        6.20643       -1.65643
H          0.27301        7.21325       -1.36504
