35
COMP47_120002.log	Energy: -2037225.5463210
C         -2.99245       -0.95525       -0.10893
C         -1.55448       -1.15572       -0.04199
C         -0.83004       -2.32479        0.08009
Cl        -1.45673       -3.92610        0.21437
C          0.56825       -2.11678        0.09577
F          1.41671       -3.13858        0.20990
C          0.95106       -0.80766       -0.01451
S         -0.45616        0.19699       -0.13034
C          2.26916       -0.20289       -0.03754
C          3.42561       -0.88285        0.08511
C          4.74742       -0.28597        0.05991
C          5.13879        1.01837       -0.09098
F          4.29352        2.03451       -0.25331
C          6.54643        1.21885       -0.06120
Cl         7.26634        2.77752       -0.23301
C          7.23117        0.05527        0.11416
H          8.30173       -0.07505        0.17441
S          6.16180       -1.28444        0.24182
C         -3.72175        0.21172       -0.12516
C         -3.46826        1.67420       -0.05817
O         -2.44509        2.31046        0.01267
N         -4.75684        2.23576       -0.07519
O         -4.94251        3.57747       -0.17973
C         -5.09170        4.16609        1.11527
C         -5.82091        1.32609       -0.19463
O         -6.99018        1.60757       -0.24551
C         -5.12703        0.01492       -0.21057
C         -5.50174       -1.28427       -0.26698
H         -6.49572       -1.70490       -0.33247
S         -4.11540       -2.30621       -0.21478
H          2.29191        0.87464       -0.16542
H          3.39859       -1.96007        0.21548
H         -5.24310        5.22859        0.92289
H         -4.18457        4.01801        1.70876
H         -5.96531        3.74964        1.62554
