47
COMP56_000230.log	Energy: -1889798.0102163
C         -1.37765       -0.13150       -0.53034
C         -0.01078       -0.67090       -0.58024
C          1.06127        0.09123       -0.09791
C          2.33488       -0.43839       -0.16233
C          3.64459        0.19778        0.27753
C          3.90798        1.48074       -0.52334
O          4.73529        1.61936       -1.38431
O          3.04685        2.43418       -0.14043
C          3.13125        3.66583       -0.85904
C          3.64669        0.53329        1.77382
O          2.79663        0.22524        2.56668
O          4.76023        1.21137        2.08750
C          4.89460        1.56236        3.46578
C          4.65448       -0.89678       -0.03772
C          6.02742       -0.88981        0.14380
C          6.75111       -2.02377       -0.22374
H          7.82836       -2.03898       -0.08938
C          6.10723       -3.13651       -0.76531
C          4.72740       -3.13787       -0.95417
C          4.00448       -2.00886       -0.58720
C          2.56758       -1.72098       -0.67187
C          1.50661       -2.48710       -1.14017
C          0.22373       -1.95351       -1.09599
C         -1.86128        1.10533       -0.87966
Cl        -0.90172        2.38680       -1.54032
N         -3.19317        1.32145       -0.73152
C         -3.76835        0.24946       -0.26284
S         -2.71108       -1.08780        0.03490
C         -5.19574        0.16298       -0.00039
S         -6.24851        1.51423       -0.28121
C         -7.56572        0.54689        0.25663
H         -8.57830        0.91970        0.29853
C         -7.10836       -0.69089        0.59763
Cl        -8.11544       -1.96535        1.18843
N         -5.77457       -0.91343        0.45497
H          0.89299        1.07181        0.33049
H          2.35653        4.30427       -0.43665
H          2.95153        3.49592       -1.92288
H          4.11767        4.11640       -0.72723
H          5.84605        2.08694        3.54285
H          4.89811        0.66474        4.08833
H          4.07119        2.21060        3.77422
H          6.52471       -0.01999        0.55832
H          6.68822       -4.01009       -1.04535
H          4.23039       -4.00418       -1.38095
H          1.66941       -3.48195       -1.54331
H         -0.61004       -2.53386       -1.48092
