25
COMP12_120000.log	Energy: -1835007.7471661
C         -2.97573        0.33810        0.06878
C         -1.55178        0.56910        0.06353
C         -0.91218        1.72734       -0.29358
F         -1.55008        2.82327       -0.69105
C          0.50072        1.66429       -0.21866
Cl         1.50720        2.99432       -0.64248
C          0.94430        0.43748        0.20100
S         -0.37945       -0.63018        0.52067
C          2.32283       -0.00231        0.39894
S          3.25217        0.52112        1.76879
C          4.62640       -0.38765        1.27351
H          5.54500       -0.38532        1.84149
C          4.37380       -1.05692        0.11978
F          5.24800       -1.83761       -0.50296
C          3.05868       -0.84563       -0.38856
Cl         2.50490       -1.57117       -1.84730
C         -4.00336        1.19884       -0.01101
C         -5.33215        0.55977        0.02768
C         -5.31826       -0.76944        0.13534
H         -6.13522       -1.47517        0.18729
S         -3.63660       -1.34433        0.17429
O         -3.31916       -2.08305       -1.03965
O         -3.29904       -1.91292        1.47371
H         -3.88779        2.27202       -0.08670
H         -6.24115        1.14813       -0.02274
