33
COMP23_000420.log	Energy: -846462.0513981
C         -0.52026        0.28242       -0.19501
C          0.95105        0.28573       -0.01906
C          1.70978       -0.75493       -0.55801
C          3.09487       -0.77673       -0.41551
O          3.90964       -1.75035       -0.91056
C          3.30268       -2.83426       -1.57265
C          3.72234        0.25965        0.27202
H          4.80218        0.23902        0.37607
C          2.97769        1.29228        0.82476
C          1.58732        1.31030        0.69459
O          0.78177        2.25870        1.24283
C          1.38908        3.35558        1.87788
C         -1.32200       -0.81130        0.27643
N         -0.86688       -1.89594        0.89812
S         -2.16519       -2.82706        1.23163
N         -3.35243       -1.89659        0.60147
C         -2.75663       -0.81716        0.10662
C         -3.40810        0.27112       -0.54256
H         -4.48600        0.26705       -0.66827
C         -2.62317        1.28593       -0.98862
O         -3.08233        2.39372       -1.63620
C         -1.18294        1.29853       -0.82925
O         -0.51203        2.34507       -1.34774
H          1.18714       -1.54382       -1.08534
H          4.11340       -3.50436       -1.86260
H          2.76574       -2.50962       -2.47421
H          2.60690       -3.37185       -0.91503
H          3.49505        2.07719        1.36412
H          0.57479        4.00827        2.19624
H          2.04619        3.90728        1.19271
H          1.96560        3.04785        2.76077
H         -4.04156        2.35123       -1.72722
H         -1.15798        2.95229       -1.73685
