39
COMP21_400400.log	Energy: -1441812.6872946
C          2.39705        0.32841        0.15982
C          0.93755        0.20837        0.13445
C          0.02673        1.15431       -0.25483
O          0.32749        2.38629       -0.72282
C         -1.35404        0.71230       -0.17430
C         -2.53413        1.40249       -0.49689
C         -2.60069        2.81004       -1.02909
C         -3.71847        0.69741       -0.29779
S         -5.30714        1.36298       -0.63178
C         -6.06247       -0.12148       -0.11857
H         -7.14053       -0.21618       -0.14246
C         -5.17492       -1.06115        0.28004
O         -5.48800       -2.30663        0.72962
C         -3.78905       -0.63060        0.19384
C         -2.61068       -1.32012        0.51230
C         -2.54704       -2.73095        1.03593
C         -1.42506       -0.61354        0.31468
S          0.15361       -1.28477        0.63818
C          3.25988       -0.75472       -0.25241
N          2.85388       -1.94394       -0.68263
S          4.18963       -2.80821       -1.02637
N          5.33943       -1.71172       -0.65036
C          4.69799       -0.62417       -0.23557
C          5.31469        0.58819        0.18592
H          6.39524        0.68344        0.18928
C          4.48675        1.59333        0.56898
O          4.89416        2.81810        1.00701
C          3.04951        1.46412        0.56968
O          2.34753        2.54652        1.01285
H          1.09493        2.72248       -0.22610
H         -1.61433        3.25516       -1.13122
H         -3.20294        3.43930       -0.36156
H         -3.09116        2.82025       -2.01052
H         -6.44699       -2.40903        0.71435
H         -3.53136       -3.18549        1.12023
H         -2.07214       -2.74848        2.02487
H         -1.93238       -3.35282        0.37312
H          5.85737        2.86160        1.03444
H          2.98251        3.23154        1.27541
