37
COMP42_330003.log	Energy: -1589965.0256074
C          1.53128        1.65732        0.17242
C          0.08972        1.50427        0.02495
C         -0.88272        2.49104       -0.01416
C         -0.64677        3.89610        0.04929
N         -0.48250        5.04275        0.09782
C         -2.20890        1.96737       -0.12439
C         -3.37461        2.79125       -0.15939
N         -4.32458        3.45390       -0.19355
C         -2.23122        0.59167       -0.16584
S         -0.63790       -0.06438       -0.09938
C         -3.39269       -0.28291       -0.28676
S         -4.62576        0.01674       -1.46269
C         -5.51606       -1.35962       -0.98250
H         -6.45278       -1.60892       -1.46133
C         -4.90416       -2.04025        0.03499
C         -5.43796       -3.22599        0.62649
N         -5.87576       -4.18843        1.09938
C         -3.67490       -1.42040        0.44031
C         -2.85956       -1.91114        1.50490
N         -2.19816       -2.30759        2.36976
C          2.53364        0.72228        0.05491
C          2.65700       -0.71689       -0.28570
O          1.79640       -1.49873       -0.60140
N          4.04657       -0.99174       -0.21339
C          4.64538       -2.25146       -0.49719
O          5.69366       -2.36584       -1.06809
O          3.88805       -3.23011       -0.02434
C          4.35601       -4.55063       -0.31821
C          4.82918        0.15721        0.12587
O          6.01755        0.18633        0.27476
C          3.82719        1.23518        0.28775
C          3.85180        2.55729        0.59539
H          4.70090        3.19071        0.81351
S          2.25746        3.19648        0.59530
H          3.59711       -5.21969        0.08330
H          5.32062       -4.72374        0.16350
H          4.45917       -4.68550       -1.39696
