38
COMP51_000220.log	Energy: -2174057.3395349
C         -1.06165        0.74302       -0.25258
C          0.37932        0.54388       -0.19059
C          1.02213       -0.64269       -0.36660
H          0.51870       -1.56731       -0.62514
C          2.44049       -0.55057       -0.17453
C          3.40137       -1.56118       -0.28625
O          3.04648       -2.84102       -0.61074
C          2.97303       -3.07245       -2.01353
C          4.72597       -1.22818       -0.03668
S          6.09487       -2.31257       -0.09704
C          7.17220       -1.00466        0.31878
H          8.23258       -1.20342        0.40213
C          6.54882        0.17977        0.50379
H          7.05705        1.10306        0.75289
C          5.12333        0.08707        0.31093
C          4.16217        1.09669        0.41819
O          4.51017        2.37991        0.73966
C          4.59867        2.60971        2.14155
C          2.83678        0.76310        0.17215
S          1.47791        1.85585        0.22596
C         -1.82343        1.80495       -0.68017
Cl        -1.19037        3.28772       -1.29916
N         -3.17162        1.66240       -0.62803
C         -3.48081        0.48777       -0.15442
S         -2.13846       -0.51652        0.27350
C         -4.85146        0.03481        0.01402
S         -6.19519        1.04658       -0.41292
C         -7.25072       -0.21405        0.09140
H         -8.32542       -0.12171        0.04255
C         -6.51425       -1.27370        0.53124
Cl        -7.19576       -2.74585        1.12657
N         -5.16198       -1.13925        0.49006
H          2.69510       -4.11976       -2.13920
H          3.94222       -2.89024       -2.49290
H          2.21479       -2.43087       -2.47910
H          4.86818        3.65944        2.26568
H          5.36840        1.97443        2.59670
H          3.63702        2.41804        2.63255
