30
COMP52_200400.log	Energy: -2076924.3538869
C         -1.04817        0.20892        0.41795
C          0.34528        0.57520        0.21462
C          0.90503        1.80198       -0.03371
Cl        -0.01547        3.26343       -0.14451
C          2.31682        1.78928       -0.18894
H          2.90005        2.67558       -0.40806
C          2.84600        0.53569       -0.04492
S          1.60319       -0.63547        0.26382
C          4.24409        0.13433       -0.10852
S          5.50520        1.22880        0.37507
C          6.72901        0.07313        0.01572
H          7.77544        0.30272        0.15573
C          6.18121       -1.08947       -0.43411
Cl         7.11739       -2.47748       -0.88696
C          4.76088       -1.06685       -0.51233
H          4.16587       -1.89673       -0.87430
C         -1.60457       -0.33806        1.55367
O         -0.97561       -0.61102        2.70815
N         -2.92970       -0.62566        1.49855
C         -3.40969       -0.30560        0.32751
S         -2.28361        0.36862       -0.79708
C         -4.80731       -0.48765       -0.03194
S         -5.94442       -1.14904        1.09443
C         -7.16397       -0.98426       -0.11300
H         -8.18748       -1.27830        0.07085
C         -6.62018       -0.45096       -1.25164
O         -7.24294       -0.17075       -2.41358
N         -5.28943       -0.17206       -1.20175
H         -0.06225       -0.29796        2.65256
H         -8.17434       -0.40873       -2.33796
