55
COMP88_000003.log	Energy: -1324386.5152543
C         -2.49913       -0.97833        0.29530
C         -3.88921       -1.42515        0.40901
C         -5.03034       -0.81905       -0.05246
O         -5.05265        0.34009       -0.75959
C         -6.34822        0.92621       -0.81728
C         -7.39500       -0.12189       -1.14939
O         -7.46024       -1.10944       -0.12743
C         -6.22786       -1.54787        0.24459
C         -5.99107       -2.69337        0.93748
H         -6.71855       -3.41245        1.28347
S         -4.30643       -2.90341        1.23674
C         -1.44038       -1.89119        0.40217
C         -0.11978       -1.48500        0.30318
C          0.18206       -0.13770        0.08314
C          1.43286        0.61877        0.03775
C          1.02331        2.06602       -0.09962
O          1.73119        3.02530       -0.27690
N         -0.39106        2.09165       -0.10398
C         -1.20347        3.22712       -0.21291
O         -2.39645        3.17826       -0.40331
O         -0.50951        4.34827       -0.06021
C         -1.27356        5.54781       -0.18140
C         -0.89216        0.77079        0.00870
C         -2.21474        0.38261        0.10110
C          2.74429        0.23461        0.05327
C          3.16821       -1.17266       -0.28121
O          2.47851       -2.09419       -0.64071
N          4.58141       -1.19946       -0.21029
C          5.41160       -2.29093       -0.49386
O          6.61107       -2.19858       -0.61680
O          4.72775       -3.42370       -0.58925
C          5.51311       -4.57217       -0.91099
C          5.06664        0.08072        0.15268
C          6.38000        0.45292        0.39631
C          6.61433        1.75695        0.82532
H          7.63598        2.07105        1.01649
C          5.56429        2.64994        1.01722
C          4.25302        2.26647        0.76236
C          3.98710        0.97231        0.30572
H         -6.29969        1.69255       -1.59252
H         -6.58119        1.39942        0.14512
H         -7.15780       -0.59666       -2.11058
H         -8.38834        0.32721       -1.20706
H         -1.64953       -2.94736        0.54265
H          0.66919       -2.21715        0.37038
H         -0.55317        6.35480       -0.05632
H         -2.04273        5.59283        0.59302
H         -1.74749        5.60449       -1.16388
H         -3.00793        1.10865        0.02288
H          4.80214       -5.39557       -0.95792
H          6.26435       -4.75236       -0.13870
H          6.01076       -4.43797       -1.87403
H          7.18823       -0.24889        0.25417
H          5.76466        3.65904        1.36261
H          3.44875        2.97215        0.89902
