31
COMP22_330000.log	Energy: -1387346.4204166
C          2.34118       -0.92302        0.26722
C          1.05223       -0.22076        0.27421
C          0.76635        1.05165        0.71444
C          1.72628        1.92879        1.30409
N          2.49324        2.63645        1.80678
C         -0.62372        1.37939        0.59323
C         -1.16680        2.62895        1.02038
N         -1.60873        3.64438        1.36193
C         -1.37389        0.35108        0.06185
S         -0.36723       -1.00529       -0.30536
C         -2.80457        0.32589       -0.21578
S         -3.61635        1.70044       -0.88674
C         -5.11876        0.88786       -0.92043
H         -6.00943        1.38411       -1.27995
C         -5.02309       -0.39200       -0.44702
C         -6.12995       -1.29141       -0.36516
N         -7.03081       -2.01701       -0.30469
C         -3.68716       -0.72076       -0.03814
C         -3.33062       -1.98690        0.51659
N         -3.03897       -3.01592        0.96300
C          3.50400       -0.30615       -0.30030
N          3.55502        0.88600       -0.89308
S          5.09961        1.10257       -1.34738
N          5.75602       -0.29284       -0.83852
C          4.76766       -0.99203       -0.27508
C          4.87389       -2.29314        0.29319
H          5.83383       -2.79624        0.30638
C          3.74348       -2.86269        0.80230
H          3.78686       -3.85263        1.24391
C          2.48732       -2.18309        0.79027
H          1.62892       -2.67600        1.23810
