31
COMP21_200410.log	Energy: -1874891.0026878
C         -2.39859        0.49319        0.07443
C         -0.93274        0.38150        0.07361
C         -0.17254       -0.51656        0.74379
Cl        -0.82305       -1.71347        1.81229
C          1.24535       -0.39326        0.51232
C          2.28708       -1.14828        1.04715
H          2.08146       -1.95880        1.73871
C          3.57935       -0.82371        0.66291
S          5.05305       -1.61271        1.18740
C          6.01638       -0.54251        0.21006
H          7.09284       -0.64114        0.19176
C          5.27114        0.35470       -0.46860
Cl         5.93787        1.55346       -1.52945
C          3.85031        0.23445       -0.23984
C          2.80830        0.99112       -0.77246
H          3.01304        1.80225       -1.46366
C          1.51609        0.66673       -0.38823
S          0.04590        1.45554       -0.90765
C         -3.21229       -0.49712       -0.57007
N         -2.76592       -1.56479       -1.22134
S         -4.08314       -2.36450       -1.75927
N         -5.26217       -1.38619       -1.19227
C         -4.64985       -0.39395       -0.55552
C         -5.28832        0.70262        0.09595
H         -6.37094        0.77668        0.10292
C         -4.49157        1.62741        0.69075
O         -4.93204        2.73066        1.35534
C         -3.04474        1.53316        0.68597
O         -2.34935        2.49880        1.31106
H         -5.89632        2.75845        1.35838
H         -2.97738        3.13385        1.68665
