32
COMP52_430200.log	Energy: -2192637.4867862
C         -0.85063       -0.60330       -0.21084
C          0.56066       -0.58781        0.15203
C          1.12567       -1.18378        1.25048
O          0.50087       -1.90986        2.19113
C          2.53480       -0.96174        1.34324
C          3.31617       -1.46974        2.42237
N          3.94294       -1.88907        3.30279
C          3.01953       -0.19119        0.30233
S          1.75861        0.25119       -0.78514
C          4.39908        0.20464        0.04766
S          5.69982       -0.90447        0.27629
C          6.86825        0.25088       -0.23785
H          7.91910       -0.00338       -0.25220
C          6.28908        1.43977       -0.57565
O          6.88560        2.56691       -1.01165
C          4.86567        1.42026       -0.41707
C          4.05359        2.56174       -0.68439
N          3.39976        3.49276       -0.90730
C         -1.48053       -1.28233       -1.22447
Cl        -0.66671       -2.32832       -2.32692
N         -2.82108       -1.11735       -1.34574
C         -3.25441       -0.30451       -0.42080
S         -2.04989        0.32520        0.64946
C         -4.65596        0.05737       -0.27658
S         -5.86352       -0.54364       -1.36593
C         -7.04159        0.33872       -0.47884
H         -8.08918        0.33069       -0.74098
C         -6.43612        1.00212        0.54829
Cl        -7.27132        2.00274        1.68009
N         -5.09109        0.84667        0.66612
H         -0.42995       -2.01936        1.95180
H          7.84136        2.44022       -1.04382
