40
COMP51_400400.log	Energy: -1691671.6779572
C          1.39732       -0.26229        0.27910
C         -0.04076       -0.07935        0.18703
C         -0.93382       -1.04099       -0.18598
O         -0.59168       -2.29831       -0.56511
C         -2.31863       -0.61357       -0.15532
C         -3.48540       -1.33072       -0.45791
C         -3.52608       -2.77588       -0.87962
C         -4.67667       -0.61629       -0.34722
S         -6.25265       -1.30797       -0.67636
C         -7.02308        0.20863       -0.30019
H         -8.09969        0.29843       -0.36595
C         -6.14834        1.17827        0.05302
O         -6.47251        2.45347        0.39560
C         -4.76102        0.74459        0.04096
C         -3.59310        1.46052        0.34531
C         -3.54976        2.90556        0.76805
C         -2.40251        0.74586        0.23786
S         -0.83013        1.44002        0.58118
C          2.05480       -1.26078        0.96874
O          1.48088       -2.24347        1.68657
N          3.41081       -1.25319        0.90677
C          3.82055       -0.24165        0.19096
S          2.58194        0.76748       -0.47712
C          5.22616        0.04762       -0.04313
S          6.47250       -0.95362        0.62506
C          7.63546        0.08252       -0.11562
H          8.69686       -0.09304       -0.01367
C          6.99623        1.08487       -0.79633
O          7.55112        2.08995       -1.50230
N          5.63657        1.06098       -0.75388
H          0.36601       -2.32903       -0.70988
H         -2.53754       -3.22829       -0.90563
H         -3.97214       -2.86811       -1.87765
H         -4.15429       -3.35445       -0.19107
H         -7.43055        2.55530        0.34749
H         -4.53827        3.35757        0.79521
H         -2.92378        3.48454        0.07774
H         -3.10116        2.99738        1.76512
H          0.53448       -2.05579        1.76918
H          8.51133        2.01160       -1.46171
