62
COMP91_200032.log	Energy: -2340978.1720033
C          1.47640       -0.09273       -0.15294
C         -0.00171       -0.17734       -0.15062
C         -0.79283       -0.57540        0.87077
Cl        -0.13411       -0.88258        2.44122
C         -2.20556       -0.58081        0.54814
C         -3.31888       -0.89541        1.33557
C         -3.20721       -1.58732        2.66214
O         -2.64670       -2.64088        2.82778
O         -3.87688       -0.92777        3.61444
C         -3.91080       -1.57033        4.89190
C         -4.58513       -0.69527        0.78711
S         -6.09926       -1.01857        1.60561
C         -6.98687       -0.63535        0.17027
H         -8.06440       -0.72425        0.15607
C         -6.20459       -0.24972       -0.86048
Cl        -6.87653        0.07189       -2.42377
C         -4.78969       -0.23911       -0.54053
C         -3.67408        0.07675       -1.32788
C         -3.78135        0.77703       -2.64933
O         -4.37340        1.81126       -2.82294
O         -3.06441        0.14925       -3.59125
C         -3.01544        0.80831       -4.85964
C         -2.40954       -0.12515       -0.77907
S         -0.89544        0.18736       -1.59900
C          2.18114       -1.25388       -0.54838
C          3.55241       -1.27569       -0.58304
C          4.24581       -2.52124       -1.01413
O          3.66648       -3.53502       -1.32791
N          5.64374       -2.44241       -1.02089
O          6.29970       -3.52490       -1.54012
C          6.61993       -4.46819       -0.51542
C          6.44988       -1.35752       -0.65311
O          7.65693       -1.43260       -0.67133
C          5.70734       -0.13654       -0.23517
C          6.41635        0.98385        0.13109
H          7.50021        0.95102        0.10630
C          5.73490        2.14778        0.52896
C          4.35908        2.17555        0.55893
C          3.68485        3.42616        0.99481
O          4.27589        4.43594        1.30328
N          2.29067        3.35630        1.01246
O          1.64562        4.44420        1.53347
C          1.31829        5.38568        0.50925
C          1.46391        2.28979        0.62967
O          0.26218        2.41541        0.64069
C          2.18061        1.04690        0.20857
C          3.60144        1.03640        0.18724
C          4.29195       -0.12960       -0.21391
H         -4.51324       -0.92240        5.52665
H         -2.89912       -1.67058        5.29121
H         -4.36456       -2.56040        4.80724
H         -2.38832        0.17922       -5.48953
H         -2.58126        1.80512       -4.75311
H         -4.02002        0.89622       -5.27903
H          1.63048       -2.14645       -0.82709
H          7.12817       -5.27874       -1.03848
H          5.70879       -4.84583       -0.04247
H          7.29362       -4.02123        0.22158
H          6.27835        3.03997        0.82073
H          0.81834        6.19932        1.03541
H          0.63466        4.93967       -0.21887
H          2.22642        5.75850        0.02659
