34
COMP62_110000.log	Energy: -1298767.4944463
C          2.07793       -0.63678        0.14872
C          0.65344       -0.84736       -0.02010
C         -0.02107       -1.91974       -0.53899
F          0.54200       -3.02817       -1.00920
C         -1.42137       -1.73808       -0.57848
F         -2.23849       -2.67884       -1.05347
C         -1.83884       -0.52436       -0.10288
S         -0.46642        0.41646        0.39537
C         -3.19767       -0.03619       -0.00161
S         -4.57969       -0.96179       -0.52663
C         -5.68058        0.28433       -0.06764
H         -6.74502        0.16884       -0.20693
C         -5.02473        1.34957        0.45615
F         -5.59487        2.46409        0.90141
C         -3.61592        1.16721        0.49392
F         -2.79649        2.09992        0.97528
C          2.79226        0.51581       -0.03919
C          2.68557        1.88282       -0.53561
O          1.74798        2.57005       -0.89168
N          4.03798        2.33724       -0.51230
C          4.40934        3.68142       -0.89333
C          4.88816        1.35644       -0.05269
H          5.95283        1.54082        0.01215
C          4.16871        0.24481        0.25006
C          4.28685       -1.14419        0.67185
O          5.22088       -1.81913        1.05062
N          2.94726       -1.63182        0.57773
C          2.60670       -2.94883        1.07454
H          3.50052        4.17638       -1.23990
H          5.14415        3.66791       -1.70382
H          4.81684        4.23445       -0.04125
H          3.41371       -3.25817        1.74068
H          2.51845       -3.67521        0.26442
H          1.66668       -2.90932        1.63072
