58
COMP87_410002.log	Energy: -1652814.8765652
C          0.12655        0.47539       -0.18662
C          1.58226        0.61161       -0.26819
C          2.33319        1.70060       -0.60444
F          1.84492        2.90770       -0.94782
C          3.73989        1.51355       -0.59746
O          4.61867        2.49308       -0.91317
C          4.09255        0.23553       -0.24103
S          2.66021       -0.70683        0.08292
C          5.40168       -0.36714       -0.08936
C          6.57832        0.24399       -0.34633
C          7.87305       -0.37435       -0.11382
C          8.22743       -1.25233        0.88190
O          7.44810       -1.72655        1.88041
C          9.60345       -1.62558        0.80809
F         10.13693       -2.47261        1.68671
C         10.28361       -1.03967       -0.20816
H         11.32442       -1.17314       -0.46241
S          9.25258        0.00430       -1.11482
C         -0.48319       -0.78092       -0.29785
C         -1.86192       -0.94142       -0.20315
C         -2.67830        0.17360       -0.00854
C         -4.12279        0.39468        0.20801
C         -4.24459        1.87081        0.56390
O         -5.19088        2.53288        0.93152
N         -2.99428        2.40340        0.32046
O         -2.64387        3.64025        0.78797
C         -2.96156        4.64149       -0.18032
C         -2.03532        1.42193        0.10284
C         -0.67404        1.60949        0.02292
C         -5.20285       -0.42302        0.06210
C         -5.10580       -1.80588       -0.57182
O         -4.14354       -2.47660       -0.88592
N         -6.40734       -2.20372       -0.75540
O         -6.75333       -3.42279       -1.25608
C         -6.58761       -4.44363       -0.26522
C         -7.32909       -1.33960       -0.17734
C         -8.69413       -1.52021       -0.08700
C         -9.42103       -0.53021        0.57496
H        -10.49745       -0.63495        0.67131
C         -8.77907        0.57823        1.11847
C         -7.39752        0.74255        1.00611
C         -6.64281       -0.21993        0.33351
H          4.11997        3.29635       -1.11518
H          5.40499       -1.41089        0.22292
H          6.57551        1.25656       -0.74033
H          6.65955       -1.16755        1.93968
H          0.12709       -1.66096       -0.47655
H         -2.29924       -1.92335       -0.29218
H         -2.60202        5.57479        0.25531
H         -4.04233        4.69198       -0.33632
H         -2.44619        4.44295       -1.12597
H         -0.24986        2.59666        0.14941
H         -6.96719       -5.35267       -0.73311
H         -7.17352       -4.20910        0.63039
H         -5.53025       -4.56257       -0.01505
H         -9.16463       -2.39733       -0.51638
H         -9.35697        1.33298        1.64179
H         -6.91506        1.60776        1.43286
