25
COMP12_220000.log	Energy: -2287284.8809968
C         -3.15898        0.09647        0.38502
C         -1.75535        0.32052        0.11214
C         -1.13091        1.48470       -0.27020
Cl        -1.93508        2.98655       -0.53099
C          0.27043        1.32763       -0.47619
Cl         1.29511        2.60595       -1.00076
C          0.70423        0.05004       -0.24155
S         -0.60312       -0.97323        0.23861
C          2.06380       -0.47025       -0.34880
S          2.49829       -1.60597       -1.58684
C          4.12535       -1.67365       -1.04381
H          4.85321       -2.30227       -1.53646
C          4.33096       -0.86274        0.02977
Cl         5.85296       -0.68967        0.82355
C          3.14606       -0.17216        0.43531
Cl         3.08919        0.89352        1.78536
C         -4.10117        0.90291        0.89440
C         -5.43843        0.28677        1.00297
C         -5.51179       -0.97585        0.58251
H         -6.35100       -1.65698        0.56187
S         -3.91692       -1.50264       -0.00570
O         -3.94253       -1.70825       -1.44635
O         -3.35256       -2.53035        0.86200
H         -3.91521        1.91721        1.22345
H         -6.28034        0.83618        1.40785
