29
COMP17_220000.log	Energy: -2335840.9746963
C          4.01359       -0.21499       -0.32117
C          2.68861        0.34927       -0.20154
C          2.32211        1.65740        0.00887
Cl         3.43165        2.96328        0.19415
C          0.91286        1.83595        0.09555
Cl         0.18197        3.37522        0.36655
C          0.20237        0.66718       -0.04479
S          1.27857       -0.66489       -0.30547
C         -1.23945        0.51900       -0.00472
C         -1.87892       -0.66456       -0.01728
C         -3.31243       -0.89830        0.00708
C         -4.40657       -0.06659       -0.07108
Cl        -4.34311        1.64893       -0.24273
C         -5.65202       -0.76654       -0.01136
Cl        -7.18912        0.01517       -0.08966
C         -5.50094       -2.11320        0.10983
H         -6.28133       -2.85719        0.17494
S         -3.84410       -2.55021        0.15275
C          5.15975        0.29245       -0.79922
C          6.31215       -0.62675       -0.72411
C          6.04700       -1.82240       -0.19770
H          6.69421       -2.67349       -0.03892
S          4.33353       -1.89727        0.27485
O          4.20287       -1.95199        1.72369
O          3.60232       -2.85101       -0.55248
H         -1.79211        1.44928        0.04530
H         -1.28358       -1.57715       -0.03841
H          5.25113        1.28125       -1.22973
H          7.28981       -0.33269       -1.08824
