54
COMP82_300002.log	Energy: -1501115.8561958
C         -1.06888        0.48703       -0.15667
C         -2.52879        0.63543       -0.21188
C         -3.26968        1.77866       -0.44189
C         -2.68673        3.05689       -0.70464
N         -2.21543        4.09573       -0.91387
C         -4.67940        1.55862       -0.42410
H         -5.40652        2.34922       -0.56735
C         -5.00597        0.25344       -0.18735
S         -3.57829       -0.71761        0.01210
C         -6.33087       -0.34377       -0.09055
S         -7.66296        0.30498       -1.00297
C         -8.74895       -0.85137       -0.36021
H         -9.79282       -0.85363       -0.64081
C         -8.11652       -1.71049        0.50061
C         -8.78616       -2.77800        1.17666
N         -9.32296       -3.64528        1.72706
C         -6.72657       -1.41758        0.65753
H         -6.07061       -1.97396        1.31624
C         -0.43829       -0.62965       -0.71633
C          0.94832       -0.76965       -0.70143
C          1.73790        0.22248       -0.12080
C          3.18969        0.46764        0.02707
C          3.30041        1.88038        0.58802
O          4.26201        2.59606        0.76819
N          2.00669        2.24273        0.89333
O          1.66761        3.47504        1.36278
C          1.56905        4.42413        0.28999
C          1.07049        1.34032        0.41668
C         -0.29744        1.49335        0.43969
C          4.26855       -0.34287       -0.15483
C          4.13859       -1.83585       -0.43776
O          3.17927       -2.51113       -0.74400
N          5.39687       -2.35318       -0.21646
O          5.73334       -3.60716       -0.64981
C          5.44992       -4.57217        0.36446
C          6.36226       -1.35651       -0.09831
C          7.73100       -1.52639       -0.06291
C          8.50960       -0.37408        0.04585
H          9.59128       -0.46444        0.07515
C          7.91546        0.88336        0.10694
C          6.52917        1.03064        0.06682
C          5.72093       -0.10437       -0.02681
H         -1.03339       -1.39347       -1.20751
H          1.40852       -1.63708       -1.14793
H          1.28526        5.35893        0.77353
H          0.79248        4.12667       -0.42247
H          2.53695        4.53566       -0.20597
H         -0.74066        2.36552        0.90439
H          5.80327       -5.51941       -0.04548
H          4.37427       -4.62313        0.55294
H          5.99000       -4.33474        1.28708
H          8.16805       -2.51520       -0.13825
H          8.53654        1.77001        0.18073
H          6.08088        2.01082        0.10901
