40
COMP62_430002.log	Energy: -1354155.0278050
C          1.69122        0.60035       -0.05284
C          0.42733       -0.06517       -0.04960
C          0.15089       -1.36658        0.38947
O          0.95105       -2.28987        0.86633
C         -1.25672       -1.64499        0.37294
C         -1.77177       -2.89521        0.82516
N         -2.19684       -3.91205        1.18464
C         -2.02045       -0.58715       -0.07588
S         -1.04899        0.76167       -0.50701
C         -3.46732       -0.51096       -0.21839
S         -4.39897       -1.87088       -0.72224
C         -5.86729       -0.97713       -0.65982
H         -6.80610       -1.45385       -0.90604
C         -5.66057        0.31315       -0.26322
O         -6.57121        1.29128       -0.09125
C         -4.28002        0.59150       -0.00951
C         -3.83568        1.86663        0.45121
N         -3.47688        2.90494        0.82212
C          2.98834        0.11682        0.05851
C          3.73594       -1.10337        0.07725
O          3.41279       -2.29781        0.09993
N          5.06504       -0.65478        0.02863
O          6.13517       -1.48112        0.19729
C          6.43416       -2.17548       -1.01896
C          5.17571        0.72047       -0.00263
H          6.14812        1.18839       -0.04130
C          3.91269        1.21792        0.01180
C          3.16323        2.45882       -0.13293
O          3.45909        3.62604       -0.20154
N          1.81532        1.97444       -0.16395
O          0.76007        2.81115       -0.34926
C          0.37636        3.45549        0.87897
H          1.90992       -2.27359        0.54997
H         -7.45570        0.95117       -0.27203
H          7.31142       -2.77901       -0.78390
H          6.66774       -1.46474       -1.81904
H          5.59868       -2.81908       -1.30515
H         -0.55403        3.97251        0.64392
H          1.15270        4.16102        1.18211
H          0.19614        2.70870        1.65831
