40
COMP92_120001.log	Energy: -1988157.7828313
C         -1.10571        0.12707        0.07882
C          0.34921       -0.00292        0.25763
C          1.02293       -0.75149        1.17416
F          0.43012       -1.56334        2.03643
C          2.43276       -0.57754        1.15323
Cl         3.47137       -1.38849        2.25753
C          2.83670        0.31774        0.19958
S          1.46916        0.94382       -0.66693
C          4.18976        0.74935       -0.12722
S          4.67237        2.40687        0.07655
C          6.26541        2.08845       -0.49122
H          7.01112        2.86629       -0.56123
C          6.41083        0.77665       -0.80772
F          7.53072        0.23723       -1.27306
C          5.23016        0.00142       -0.60935
Cl         5.15752       -1.67349       -0.99145
C         -1.64064        1.43800        0.16330
C         -2.98621        1.67261        0.07401
C         -3.49156        3.06932        0.17986
O         -2.77307        4.03551        0.32253
N         -4.87117        3.20287        0.10230
H         -5.22952        4.14850        0.17318
C         -5.82561        2.20394       -0.05545
O         -7.00703        2.47190       -0.10268
C         -5.28749        0.82013       -0.15959
C         -6.15822       -0.23259       -0.31864
H         -7.22351       -0.03416       -0.36511
C         -5.65838       -1.54189       -0.42058
C         -4.30399       -1.78033       -0.36454
C         -3.82227       -3.17922       -0.48857
O         -4.55278       -4.13994       -0.61128
N         -2.44549       -3.31807       -0.46859
H         -2.09106       -4.25870       -0.60017
C         -1.46689       -2.33587       -0.35359
O         -0.30067       -2.64547       -0.45853
C         -1.97056       -0.94417       -0.12943
C         -3.37718       -0.71713       -0.19641
C         -3.88989        0.59701       -0.09334
H         -0.97686        2.28148        0.32557
H         -6.32738       -2.38653       -0.54591
