58
COMP87_340000.log	Energy: -1549756.7136547
C         -0.31244        0.46533        0.13814
C          1.14159        0.63499        0.23513
C          1.81610        1.71062        0.75863
O          1.27621        2.82262        1.29777
C          3.23696        1.56245        0.72326
C          4.11120        2.56591        1.22864
N          4.83559        3.37537        1.63633
C          3.64056        0.35653        0.17076
S          2.26278       -0.57525       -0.29746
C          4.95357       -0.21419       -0.06244
C          6.13230        0.36890        0.23294
C          7.44009       -0.21290       -0.00150
C          7.82975       -1.41808       -0.56764
C          6.97368       -2.42776       -1.08455
N          6.34623       -3.30012       -1.52635
C          9.25447       -1.59461       -0.60309
O          9.87810       -2.67967       -1.10340
C          9.92277       -0.53155       -0.06968
H         10.99188       -0.41495        0.02498
S          8.83456        0.68261        0.47668
C         -0.92538       -0.75102        0.45294
C         -2.30782       -0.90840        0.39299
C         -3.11780        0.16641        0.02842
C         -4.56244        0.35820       -0.19986
C         -4.68281        1.77390       -0.73716
O         -5.66925        2.40240       -1.06885
N         -3.41135        2.30782       -0.74408
C         -3.11413        3.65245       -1.17223
C         -2.47880        1.37477       -0.32036
C         -1.10778        1.55071       -0.27088
C         -5.63800       -0.44580        0.03261
C         -5.55093       -1.72584        0.85446
O         -4.58687       -2.23625        1.39461
N         -6.82552       -2.22640        0.94858
C         -7.15808       -3.43094        1.66755
C         -7.72522       -1.43795        0.23977
C         -9.07662       -1.68055        0.07181
C         -9.80135       -0.78555       -0.71536
H        -10.86434       -0.94826       -0.86563
C         -9.17311        0.30215       -1.31278
C         -7.81041        0.53651       -1.12881
C         -7.06253       -0.33046       -0.33059
H          0.32398        2.68697        1.40850
H          4.94267       -1.20132       -0.51591
H          6.14638        1.35418        0.68868
H          9.22483       -3.31517       -1.42786
H         -0.31477       -1.58840        0.77649
H         -2.75323       -1.85465        0.65665
H         -4.05967        4.13269       -1.42534
H         -2.46198        3.64526       -2.05232
H         -2.62582        4.21259       -0.36771
H         -0.65259        2.47727       -0.60828
H         -6.24094       -3.80677        2.12196
H         -7.56414       -4.18699        0.98675
H         -7.89392       -3.22005        2.45046
H         -9.55360       -2.54083        0.52963
H         -9.74786        0.98466       -1.93022
H         -7.33874        1.39126       -1.58747
