32
COMP64_000002.log	Energy: -1095499.6887483
C          0.46166        0.70422       -0.03927
C         -0.92134        0.31957       -0.05687
C         -1.34773       -0.98015        0.11542
H         -0.65777       -1.80523        0.27064
C         -2.75609       -1.06528        0.05803
S         -3.91064       -2.35228        0.19450
C         -5.21572       -1.23157       -0.04325
H         -6.23360       -1.59814       -0.04021
C         -4.80967        0.05700       -0.21837
H         -5.48703        0.88577       -0.38044
C         -3.38942        0.15170       -0.15749
S         -2.25252        1.44388       -0.30651
C          1.58693       -0.08697        0.05814
C          1.99659       -1.46585        0.20213
O          1.40524       -2.52893        0.30329
N          3.41736       -1.34284        0.17972
O          4.25753       -2.38285        0.45039
C          4.37902       -3.24049       -0.68807
C          3.85561       -0.04340        0.09568
H          4.91371        0.17506        0.10612
C          2.75495        0.75084        0.01127
C          2.33973        2.13823       -0.13492
O          2.91943        3.19562       -0.22874
N          0.91432        2.00990       -0.11638
O          0.09141        3.06543       -0.37525
C         -0.04143        3.90120        0.78254
H          5.08866       -4.00994       -0.38165
H          4.77138       -2.68678       -1.54825
H          3.41326       -3.69135       -0.92844
H         -0.75528        4.67047        0.48677
H          0.92272        4.35047        1.02976
H         -0.43488        3.32628        1.62718
