49
COMP46_000030.log	Energy: -1147500.6523544
C         -2.37649       -0.39414       -0.31028
C         -1.09062        0.31375       -0.25961
C          0.10536       -0.40260       -0.09084
C          1.30269        0.28182       -0.06323
C          2.70946       -0.27447        0.10304
C          2.85619       -1.00240        1.44482
O          3.45720       -0.60075        2.40530
O          2.18976       -2.16697        1.40600
C          2.23120       -2.93667        2.60878
C          3.07897       -1.23887       -1.03151
O          2.42020       -1.45970       -2.01297
O          4.27200       -1.79932       -0.78332
C          4.74056       -2.70835       -1.78060
C          3.56130        0.98665        0.03800
C          4.93626        1.11178        0.14530
C          5.49637        2.38529        0.05049
H          6.57187        2.50595        0.13585
C          4.68961        3.50652       -0.14569
C          3.30651        3.37877       -0.24511
C          2.74660        2.10997       -0.14986
C          1.34702        1.67362       -0.20377
C          0.16783        2.39145       -0.36121
C         -1.04345        1.71120       -0.38753
C         -3.66767        0.03664       -0.13317
C         -4.39075        1.29699        0.18660
O         -3.98365        2.42658        0.35153
N         -5.74434        0.93602        0.25724
C         -6.80601        1.87542        0.54388
C         -5.98452       -0.41850        0.00113
O         -7.07515       -0.93930        0.00178
C         -4.64128       -0.99320       -0.24996
C         -4.13150       -2.21616       -0.52811
H         -4.64747       -3.15617       -0.66539
S         -2.41360       -2.11317       -0.66001
H          0.10244       -1.48118        0.02793
H          1.67835       -3.84970        2.39147
H          1.76112       -2.38837        3.42836
H          3.26525       -3.16591        2.87586
H          5.68508       -3.09688       -1.40180
H          4.89109       -2.18850       -2.72953
H          4.02043       -3.51688       -1.92482
H          5.55932        0.23886        0.30533
H          5.14506        4.48949       -0.21843
H          2.68050        4.25413       -0.39145
H          0.18158        3.47211       -0.46591
H         -1.96775        2.26715       -0.49235
H         -6.35182        2.85944        0.66346
H         -7.32534        1.59137        1.46272
H         -7.52651        1.89236       -0.27754
