31
COMP42_440001.log	Energy: -1404336.9247435
C         -2.01001       -0.52666       -0.17131
C         -0.69088        0.04386       -0.11255
C         -0.29335        1.35179       -0.30494
O         -1.01351        2.45399       -0.56167
C          1.12218        1.50654       -0.29280
O          1.69698        2.71635       -0.46749
C          1.81505        0.34294       -0.08876
S          0.70616       -0.99162        0.11128
C          3.24661        0.17608        0.00700
S          4.35894        1.51968       -0.13656
C          5.72929        0.48563        0.08030
H          6.72993        0.89529        0.06636
C          5.35297       -0.80864        0.25410
O          6.10886       -1.92537        0.45534
C          3.93865       -0.98940        0.21177
O          3.35314       -2.20015        0.36285
C         -3.26179        0.00549        0.04728
C         -3.84295        1.28024        0.48648
O         -3.31539        2.35739        0.73082
N         -5.20742        1.04896        0.58937
H         -5.86203        1.76788        0.86341
C         -5.60512       -0.25747        0.24340
O         -6.73821       -0.66631        0.25274
C         -4.32700       -0.92951       -0.09842
C         -3.93064       -2.17884       -0.43191
H         -4.52565       -3.06895       -0.58147
S         -2.20783       -2.22193       -0.59752
H         -1.86971        2.45883       -0.06283
H          0.97321        3.35626       -0.56005
H          7.04406       -1.69319        0.46440
H          4.05282       -2.85644        0.49070
