37
COMP49_000000.log	Energy: -1313487.4925880
C          1.66596       -0.96516       -0.00271
C          0.26482       -0.60820       -0.00324
C         -0.26845        0.66453       -0.00354
C         -1.67749        0.64696       -0.00337
C         -2.20348       -0.62586       -0.00319
S         -0.99106       -1.83796       -0.00355
C         -3.64553       -0.53739       -0.00068
C         -4.00444        0.79066        0.00106
C         -2.78044        1.69239       -0.00042
C         -2.72139        2.56327        1.26560
C         -2.72715        2.56730       -1.26357
C         -5.41149        0.97623        0.00425
C         -6.07790       -0.21773        0.00515
H         -7.14686       -0.38158        0.00747
S         -5.00816       -1.58514        0.00159
C          2.78709       -0.16971       -0.00198
C          3.11895        1.27315       -0.00288
O          2.40378        2.25392       -0.00502
N          4.52125        1.32654       -0.00145
C          5.27415        2.56148        0.00326
C          5.13577        0.06861        0.00252
O          6.32986       -0.11687        0.00607
C          4.00838       -0.89617        0.00071
C          3.86125       -2.24117        0.00177
H          4.61732       -3.01350        0.00319
S          2.17797       -2.64398        0.00050
H          0.35861        1.54970       -0.00381
H         -2.76315        1.94468        2.16683
H         -3.56216        3.26517        1.28634
H         -1.79228        3.14294        1.28545
H         -2.77444        1.95191       -2.16678
H         -1.79775        3.14635       -1.28688
H         -3.56747        3.26993       -1.27750
H         -5.91429        1.93640        0.00555
H          4.55953        3.38318       -0.05132
H          5.94896        2.59363       -0.85560
H          5.86448        2.64331        0.91969
