29
COMP17_210000.log	Energy: -1883564.7696360
C          3.87669        0.06920       -0.18298
C          2.51310        0.52671       -0.12058
C          2.08554        1.82050        0.02030
F          2.91233        2.85612        0.11500
C          0.68018        1.97087        0.06993
Cl        -0.06713        3.51351        0.25654
C          0.01165        0.77255       -0.03313
S          1.13716       -0.53650       -0.21434
C         -1.42449        0.58405       -0.01458
C         -2.03284       -0.61619       -0.01651
C         -3.45943       -0.88116       -0.00644
C         -4.56930       -0.06910       -0.04675
Cl        -4.58381        1.65395       -0.13237
C         -5.79132       -0.80017       -0.01750
F         -6.96916       -0.18838       -0.04958
C         -5.62995       -2.14656        0.04363
H         -6.40138       -2.90106        0.07564
S         -3.95986       -2.54909        0.06658
C          5.01544        0.73643       -0.43257
C          6.22863       -0.09975       -0.38505
C          6.02043       -1.38582       -0.09874
H          6.72240       -2.20310       -0.01257
S          4.28405       -1.66105        0.16532
O          4.01887       -1.96183        1.56553
O          3.71617       -2.51266       -0.87345
H         -2.00245        1.50053        0.00827
H         -1.41504       -1.51400       -0.02008
H          5.05737        1.79307       -0.66270
H          7.20850        0.32067       -0.58009
