33
COMP47_040001.log	Energy: -1358518.3182550
C         -2.73262       -0.50345       -0.14035
C         -1.38013       -0.02047       -0.03062
C         -0.87514        1.26525       -0.20652
O         -1.55175        2.38760       -0.44738
C          0.54634        1.30978       -0.17359
H          1.08349        2.24466       -0.27351
C          1.13213        0.08948        0.02608
S         -0.06598       -1.15318        0.20234
C          2.53883       -0.25864        0.13682
C          3.54664        0.56735       -0.19487
C          4.95877        0.25572       -0.06271
C          5.57201       -0.80977        0.54954
H          5.03288       -1.59814        1.06515
C          6.99166       -0.75979        0.45317
O          7.84249       -1.68321        0.97020
C          7.44473        0.33946       -0.22312
H          8.47240        0.60323       -0.42391
S          6.13820        1.32558       -0.75110
C         -3.95794        0.09420        0.05397
C         -4.47936        1.38628        0.52150
O         -3.89543        2.41832        0.81771
N         -5.85813        1.23113        0.57635
H         -6.47832        1.97893        0.85333
C         -6.31916       -0.03534        0.17014
O         -7.47327       -0.37801        0.12863
C         -5.07114       -0.76991       -0.15681
C         -4.73977       -2.03049       -0.51701
H         -5.38216       -2.87774       -0.71263
S         -3.01827       -2.17055       -0.62997
H         -2.42112        2.40719        0.01932
H          2.76193       -1.25873        0.50234
H          3.31111        1.54712       -0.60576
H          7.33202       -2.36964        1.41370
