58
COMP87_420002.log	Energy: -2105094.6627906
C         -0.21245        0.62152       -0.28920
C          1.24404        0.80440       -0.34998
C          1.98555        1.93904       -0.54398
Cl         1.34379        3.53068       -0.83518
C          3.39821        1.73424       -0.55224
O          4.30942        2.71213       -0.73832
C          3.74256        0.41800       -0.35496
S          2.30768       -0.54839       -0.16270
C          5.04951       -0.20480       -0.26977
C          6.23461        0.42011       -0.43720
C          7.51895       -0.24187       -0.26522
C          7.85416       -1.21474        0.64714
O          7.05198       -1.75107        1.59126
C          9.22176       -1.61830        0.54339
Cl         9.90872       -2.82651        1.57171
C          9.90728       -0.95141       -0.42299
H         10.94483       -1.07913       -0.69543
S          8.90541        0.19204       -1.22835
C         -0.81724       -0.46520       -0.93031
C         -2.19332       -0.67711       -0.87475
C         -3.00270        0.20998       -0.16576
C         -4.45571        0.35234        0.07669
C         -4.60905        1.69410        0.78099
O         -5.59351        2.34147        1.06908
N         -3.32308        2.09706        1.06472
O         -3.03202        3.30908        1.61581
C         -3.11880        4.34790        0.63308
C         -2.36424        1.30525        0.44884
C         -1.00580        1.52935        0.42622
C         -5.50030       -0.49621       -0.13438
C         -5.31221       -1.93540       -0.60133
O         -4.34337       -2.51255       -1.04680
N         -6.52468       -2.54919       -0.37021
O         -6.82040       -3.76372       -0.92764
C         -6.42277       -4.81750       -0.04902
C         -7.53060       -1.63416       -0.07281
C         -8.88221       -1.89125        0.03237
C         -9.71155       -0.81119        0.33407
H        -10.78155       -0.97096        0.42605
C         -9.18204        0.46415        0.50898
C         -7.81242        0.70053        0.39398
C         -6.95275       -0.36195        0.10752
H          3.84954        3.55788       -0.84127
H          5.04392       -1.27921       -0.08848
H          6.24843        1.47385       -0.70023
H          6.26845       -1.18828        1.67841
H         -0.20619       -1.14936       -1.51056
H         -2.63123       -1.52024       -1.38511
H         -2.83604        5.25826        1.16263
H         -4.14220        4.43399        0.25840
H         -2.41876        4.15928       -0.18859
H         -0.57861        2.37179        0.95634
H         -6.73608       -5.73390       -0.55104
H         -6.92689       -4.72502        0.91877
H         -5.33759       -4.81480        0.08339
H         -9.26945       -2.89015       -0.13145
H         -9.84244        1.29509        0.73451
H         -7.41565        1.69486        0.52447
