31
COMP27_200100.log	Energy: -1905750.0849035
C          2.82551        0.43596        0.01190
C          1.49504       -0.16998       -0.00806
C          1.19430       -1.50946       -0.04207
H          1.93889       -2.29134       -0.06149
C         -0.19834       -1.75206       -0.04899
Cl        -0.83739       -3.36550       -0.09087
C         -0.98288       -0.62321       -0.02294
S          0.03014        0.78350        0.01624
C         -2.43013       -0.56204       -0.02420
C         -3.14770        0.57663       -0.04178
C         -4.59421        0.71073       -0.03952
C         -5.63373       -0.18502        0.07693
Cl        -5.45806       -1.89946        0.28344
C         -6.92904        0.40209        0.02861
H         -7.84411       -0.17095        0.10794
C         -6.87287        1.75310       -0.12457
H         -7.69812        2.44805       -0.19104
S         -5.25211        2.31603       -0.21055
C          4.04069       -0.35092       -0.01474
N          4.11443       -1.67804       -0.06397
S          5.69255       -2.07196       -0.07557
N          6.35232       -0.58732       -0.01846
C          5.34200        0.27803        0.01103
C          5.48181        1.69378        0.06227
H          6.45308        2.17051        0.08214
C          4.33095        2.40520        0.08405
F          4.33826        3.73486        0.13115
C          3.03819        1.78923        0.05914
F          2.01253        2.64429        0.08687
H         -2.92421       -1.52645       -0.01357
H         -2.61391        1.52612       -0.06732
