32
COMP57_010200.log	Energy: -2155607.7297340
C          1.29202        0.38533       -0.01013
C         -0.09732       -0.01851       -0.04857
C         -0.57684       -1.30486       -0.13408
F          0.23489       -2.36533       -0.19668
C         -1.97618       -1.44718       -0.16516
H         -2.47075       -2.40547       -0.25567
C         -2.60516       -0.22905       -0.09333
S         -1.45693        1.06970        0.00245
C         -4.02334        0.08521       -0.08521
C         -5.00146       -0.82531        0.06070
C         -6.42280       -0.52422        0.03121
C         -7.06770        0.63908       -0.30711
H         -6.57966        1.54619       -0.64037
C         -8.47381        0.51224       -0.19052
F         -9.29489        1.52526       -0.47361
C         -8.90809       -0.71157        0.21939
H         -9.92596       -1.03680        0.37338
S         -7.56614       -1.75659        0.48049
C          1.87003        1.63456        0.06997
Cl         0.99810        3.12552        0.14670
N          3.22210        1.69915        0.08949
C          3.72710        0.49940        0.02492
S          2.57938       -0.79149       -0.06468
C          5.15594        0.23839        0.02581
S          6.31240        1.53033        0.11815
C          7.56752        0.35501        0.06157
H          8.61338        0.62188        0.09135
C          7.01862       -0.88996       -0.01996
Cl         7.94115       -2.34972       -0.09491
N          5.66151       -0.96248       -0.04067
H         -4.28314        1.13548       -0.19986
H         -4.73720       -1.86862        0.22194
