44
COMP26_000320.log	Energy: -1036656.9968816
C         -2.09391       -0.33829       -0.19103
C         -0.64561       -0.60457       -0.32265
C          0.27435        0.20303        0.36630
C          1.62304       -0.05182        0.23104
C          2.81282        0.67415        0.87671
O          2.76623        2.07131        0.72374
C          2.60601        2.54305       -0.59800
O          2.96655        0.42156        2.23732
C          1.91593        0.84946        3.08220
C          3.99135        0.00090        0.18146
C          5.33561        0.28346        0.33431
C          6.25779       -0.48283       -0.38116
H          7.32008       -0.28276       -0.27894
C          5.82749       -1.50854       -1.22324
C          4.46957       -1.78968       -1.37199
C          3.55474       -1.02299       -0.66150
C          2.08108       -1.05992       -0.62806
C          1.18028       -1.86158       -1.31390
C         -0.18357       -1.63491       -1.14738
C         -2.60613        0.98908       -0.39326
N         -1.87727        2.06127       -0.71199
S         -2.91402        3.30246       -0.84138
N         -4.31603        2.55354       -0.51205
C         -4.01034        1.27488       -0.28375
C         -4.93661        0.24507        0.02905
H         -5.99475        0.46109        0.11124
C         -4.44246       -1.01461        0.21933
C         -5.35761       -2.07513        0.53933
N         -6.11771       -2.91110        0.79428
C         -3.02616       -1.30839        0.11624
C         -2.60946       -2.65685        0.38277
N         -2.29782       -3.75030        0.60561
H         -0.07510        1.02485        0.98203
H          2.70301        3.62890       -0.54527
H          1.62016        2.28713       -1.00660
H          3.38311        2.14635       -1.26470
H          2.30024        0.76785        4.10036
H          1.03501        0.20204        2.98398
H          1.63819        1.88912        2.88089
H          5.65726        1.07957        0.99830
H          6.55872       -2.09585       -1.77051
H          4.14191       -2.58937       -2.03009
H          1.52158       -2.64480       -1.98365
H         -0.89467       -2.24824       -1.69156
