42
COMP62_320003.log	Energy: -1978836.5132470
C          1.67396        0.80588       -0.17294
C          0.26065        0.63129        0.12857
C         -0.54727        1.38164        0.96210
C         -0.11575        2.53837        1.67543
N          0.24729        3.47986        2.24572
C         -1.86598        0.84925        1.05605
Cl        -3.08348        1.55027        2.04787
C         -2.05085       -0.27744        0.29898
S         -0.59637       -0.70383       -0.53153
C         -3.27084       -1.06424        0.14419
S         -3.42453       -2.65176        0.83379
C         -5.01528       -2.82842        0.23767
H         -5.58168       -3.73098        0.42012
C         -5.43128       -1.72449       -0.45873
C         -6.71987       -1.61068       -1.06295
N         -7.76806       -1.53035       -1.54984
C         -4.41840       -0.71183       -0.51174
Cl        -4.63327        0.78013       -1.33881
C          2.63258       -0.15611       -0.22736
C          2.82528       -1.59682       -0.03049
O          2.04106       -2.49407        0.14036
N          4.26977       -1.72606       -0.11648
C          5.06349       -2.88421       -0.03379
O          6.26402       -2.84288       -0.15331
O          4.33303       -3.96277        0.18659
C          5.07325       -5.18477        0.27490
C          4.87179       -0.48225       -0.32659
H          5.94898       -0.42021       -0.38202
C          3.91247        0.46057       -0.40685
C          3.73348        1.90851       -0.50624
O          4.50944        2.79993       -0.71758
N          2.29381        2.05868       -0.33645
C          1.57622        3.23522       -0.67636
O          0.49787        3.20756       -1.21468
O          2.24672        4.30478       -0.30387
C          1.58980        5.55105       -0.56074
H          4.32692       -5.95396        0.46485
H          5.79542       -5.13448        1.09233
H          5.59805       -5.37802       -0.66302
H          2.29173        6.31346       -0.22884
H          0.66235        5.60095        0.01328
H          1.37595        5.65736       -1.62614
