44
COMP82_100001.log	Energy: -1366285.4577779
C         -0.77248        0.54711       -0.14740
C         -2.22988        0.70042       -0.16294
C         -2.98878        1.81713       -0.39586
F         -2.46654        3.01988       -0.66589
C         -4.39031        1.63578       -0.33647
H         -5.10335        2.43850       -0.47868
C         -4.71919        0.33844       -0.05038
S         -3.29878       -0.64246        0.13319
C         -6.04418       -0.24169        0.09911
S         -7.40344        0.43894       -0.74601
C         -8.48649       -0.71828       -0.06870
H         -9.54187       -0.71198       -0.29645
C         -7.81141       -1.57670        0.74105
F         -8.39341       -2.58012        1.40025
C         -6.41922       -1.32205        0.85204
H         -5.75209       -1.89965        1.48003
C         -0.18081       -0.70833       -0.33901
C          1.19829       -0.88257       -0.32232
C          2.03768        0.21498       -0.12257
C          3.49434        0.41196        0.01402
C          3.65618        1.89591        0.32338
O          4.65871        2.55840        0.50044
N          2.39036        2.42701        0.32271
H          2.22799        3.40818        0.48527
C          1.41906        1.46592        0.08463
C          0.05340        1.66008        0.07543
C          4.55012       -0.44095       -0.12309
C          4.41208       -1.84398       -0.70288
O          3.43107       -2.43293       -1.11268
N          5.67895       -2.36781       -0.74085
H          5.85768       -3.29259       -1.09874
C          6.62439       -1.49290       -0.22278
C          7.97844       -1.72495       -0.06458
C          8.74342       -0.71537        0.51736
H          9.80984       -0.86664        0.65470
C          8.14982        0.47418        0.92808
C          6.78391        0.69444        0.75677
C          5.99282       -0.29076        0.16111
H         -0.80588       -1.57588       -0.52840
H          1.61939       -1.86160       -0.48721
H         -0.36764        2.64232        0.24957
H          8.42515       -2.66345       -0.37749
H          8.75528        1.24946        1.38626
H          6.34003        1.62672        1.06801
