50
COMP77_410003.log	Energy: -2080390.7986672
C         -0.42991       -1.87129       -0.34616
C          0.86963       -1.23913       -0.47091
C          1.20769       -0.15628       -1.22604
F          0.37016        0.52761       -2.00575
C          2.57132        0.22855       -1.16040
O          3.07240        1.28435       -1.84006
C          3.31116       -0.59958       -0.35128
S          2.29005       -1.83688        0.33559
C          4.71882       -0.55864       -0.00919
C          5.62074        0.30735       -0.51963
C          7.01150        0.35713       -0.10055
C          7.53164        0.11565        1.14803
O          6.85714       -0.20322        2.27596
C          8.94923        0.28143        1.18321
F          9.63912        0.08888        2.30609
C          9.49456        0.64955       -0.00245
H         10.53774        0.82741       -0.21667
S          8.27730        0.81563       -1.21269
C         -1.67414       -1.29814       -0.18886
C         -1.95321        0.13997        0.03426
O         -1.09218        0.96845        0.25133
C         -3.40520        0.49133        0.06193
C         -3.89450        1.77382        0.10033
C         -3.17386        3.06178       -0.12618
O         -2.36615        3.25320       -0.99674
O         -3.60894        3.99410        0.73194
C         -3.02360        5.28865        0.56881
S         -5.59982        1.79021        0.32560
C         -5.68167        0.07153        0.35777
C         -6.98893       -0.58435        0.65734
O         -7.14324       -1.49014        1.43254
O         -7.97810        0.03380       -0.00395
C         -9.29238       -0.45693        0.27425
C         -4.44057       -0.49278        0.18402
C         -4.16168       -1.94417       -0.00549
O         -5.03135       -2.78733       -0.09015
C         -2.72466       -2.27490       -0.15675
C         -2.26848       -3.55475       -0.27323
H         -2.86560       -4.45633       -0.25943
S         -0.56625       -3.60227       -0.44990
H          2.33733        1.75611       -2.25593
H          5.05618       -1.32343        0.68924
H          5.30529        1.01682       -1.27940
H          5.92078        0.00126        2.13682
H         -3.49351        5.91788        1.32321
H         -3.22081        5.67433       -0.43416
H         -1.94447        5.23532        0.72822
H         -9.96244        0.14695       -0.33585
H         -9.52407       -0.34022        1.33558
H         -9.36789       -1.51225        0.00379
