35
COMP42_300003.log	Energy: -1474253.5709634
C         -1.24365       -1.67624       -0.00779
C          0.20712       -1.57390        0.04665
C          1.14257       -2.57472        0.27604
C          0.84504       -3.94659        0.53737
N          0.64658       -5.06939        0.75015
C          2.48792       -2.11501        0.25726
H          3.33488       -2.76229        0.45114
C          2.57854       -0.77399        0.00976
S          1.01699       -0.06082       -0.21017
C          3.77445        0.05333       -0.06538
S          5.28828       -0.61422       -0.60370
C          6.09110        0.88371       -0.40066
H          7.14543        0.98540       -0.61638
C          5.23519        1.85801        0.04395
C          5.64299        3.20518        0.29675
N          5.96840        4.29803        0.50365
C          3.90299        1.38053        0.23814
H          3.09435        2.00036        0.60704
C         -2.20485       -0.69150       -0.05609
C         -2.25862        0.78981       -0.07615
O         -1.36003        1.59104       -0.12194
N         -3.64546        1.10489       -0.09111
C         -4.17736        2.42067       -0.16263
O         -5.13588        2.71065       -0.82289
O         -3.47378        3.23701        0.61050
C         -3.86677        4.61109        0.54877
C         -4.48325       -0.05276       -0.12090
O         -5.68224       -0.05930       -0.11805
C         -3.52917       -1.18292       -0.10038
C         -3.62086       -2.53612       -0.09380
H         -4.50410       -3.15963       -0.11785
S         -2.05065       -3.23453       -0.02965
H         -3.16678        5.13900        1.19412
H         -4.89071        4.72875        0.90981
H         -3.79824        4.98029       -0.47685
