28
COMP52_010200.log	Energy: -2107053.8520905
C         -0.42902        0.30136       -0.21330
C          0.94511       -0.16601       -0.26685
C          1.35001       -1.42683       -0.62727
H          0.69344       -2.21331       -0.97864
C          2.74531       -1.58011       -0.50550
F          3.35994       -2.72662       -0.81805
C          3.42521       -0.47596       -0.06175
S          2.29566        0.81642        0.21962
C          4.85075       -0.32970        0.14257
S          5.99303       -1.60797       -0.16954
C          7.32095       -0.62459        0.31569
H          8.32341       -1.02831        0.28916
C          6.93506        0.62279        0.70180
H          7.59739        1.40650        1.04509
C          5.52990        0.77019        0.59673
F          4.91018        1.91115        0.92129
C         -0.98173        1.55547       -0.33422
Cl        -0.08312        3.00846       -0.58542
N         -2.33313        1.64848       -0.26405
C         -2.85588        0.46864       -0.08340
S         -1.72300       -0.83595        0.02967
C         -4.28571        0.23329        0.02295
S         -5.43241        1.53133       -0.08317
C         -6.69209        0.38027        0.13226
H         -7.73494        0.65970        0.15213
C         -6.15153       -0.86436        0.26408
Cl        -7.07986       -2.30246        0.49967
N         -4.79689       -0.95355        0.20301
