26
COMP32_020000.log	Energy: -1663915.9180298
C         -2.35346        0.02606       -0.12251
C         -0.91496        0.31178       -0.22141
C         -0.32626        1.53970       -0.38336
H         -0.86683        2.46834       -0.49341
C          1.08881        1.46481       -0.38416
Cl         2.08077        2.87358       -0.56209
C          1.58648        0.20028       -0.21352
S          0.28667       -0.93485       -0.08086
C          2.97782       -0.24271       -0.17539
S          3.98175       -0.20473       -1.59217
C          5.32477       -0.85071       -0.73464
H          6.26674       -1.01191       -1.24046
C          5.03308       -1.09448        0.57259
H          5.73022       -1.49566        1.29681
C          3.68809       -0.74588        0.88263
Cl         3.03260       -0.93037        2.47631
C         -2.89784       -1.21394       -0.47538
F         -2.10202       -2.19443       -0.91260
C         -4.25783       -1.47359       -0.38122
F         -4.70733       -2.67702       -0.73613
C         -5.13896       -0.50553        0.06696
H         -6.20032       -0.70686        0.14032
C         -4.62176        0.72737        0.42413
F         -5.43129        1.68870        0.86829
C         -3.26137        0.98964        0.33599
F         -2.83840        2.19921        0.71147
