65
COMP85_000003.log	Energy: -1183757.5065521
C          1.66559        0.24996       -0.24452
C          3.14588        0.21046       -0.33065
C          3.84319       -0.88532        0.17896
C          5.23336       -0.89099        0.08677
N          6.14304       -1.83946        0.52551
C          5.85424       -3.08997        1.18085
C          7.41865       -1.40575        0.21170
C          8.64064       -2.03438        0.45144
C          9.79179       -1.37943        0.03397
H         10.75765       -1.84496        0.20635
C          9.73330       -0.13294       -0.60626
C          8.51303        0.48479       -0.84246
C          7.34184       -0.15288       -0.43317
C          5.93643        0.17865       -0.51161
C          5.22774        1.26661       -1.01941
C          3.84615        1.27897       -0.92559
C          0.90154       -0.90166       -0.46561
C         -0.48191       -0.88509       -0.36943
C         -1.14411        0.30312       -0.04712
C         -2.55694        0.68029        0.03101
C         -2.56183        2.16382        0.31643
O         -3.50570        2.86945        0.56847
N         -1.20974        2.57692        0.35496
C         -0.74043        3.87737        0.58035
O          0.42368        4.14011        0.77411
O         -1.71855        4.77234        0.53220
C         -1.31091        6.11925        0.77542
C         -0.36431        1.46235        0.13302
C          1.01668        1.45483        0.05289
C         -3.71172       -0.04369       -0.06221
C         -3.73609       -1.54100        0.11901
O         -2.82276       -2.27152        0.41269
N         -5.08650       -1.94403       -0.00324
C         -5.58636       -3.24492        0.13627
O         -6.76505       -3.49693        0.23209
O         -4.61816       -4.15209        0.12932
C         -5.05869       -5.49925        0.30325
C         -5.90312       -0.81353       -0.25162
C         -7.26768       -0.78935       -0.49703
C         -7.84999        0.43936       -0.79823
H         -8.91843        0.48295       -0.98653
C         -7.08415        1.59936       -0.86654
C         -5.71853        1.56220       -0.61228
C         -5.10874        0.34904       -0.28003
H          3.30253       -1.69353        0.66175
H          4.78316       -3.16722        1.36976
H          6.37648       -3.15050        2.14208
H          6.15923       -3.93953        0.55866
H          8.69511       -3.00016        0.94439
H         10.65306        0.35087       -0.91954
H          8.46873        1.44989       -1.33910
H          5.75166        2.09450       -1.48828
H          3.28793        2.11350       -1.33783
H          1.39875       -1.82732       -0.73822
H         -1.04006       -1.79259       -0.53663
H         -2.22755        6.70488        0.72448
H         -0.59905        6.44773        0.01477
H         -0.85067        6.20938        1.76180
H          1.57927        2.35707        0.24292
H         -4.15001       -6.09892        0.27784
H         -5.73683       -5.78944       -0.50229
H         -5.56824       -5.61478        1.26251
H         -7.85317       -1.69546       -0.45111
H         -7.55318        2.54663       -1.11201
H         -5.13864        2.47062       -0.65294
