35
COMP42_030003.log	Energy: -1474254.5382692
C          0.85079       -1.20317       -0.13511
C         -0.37991       -0.43574       -0.05624
C         -0.51119        0.89975        0.22305
H          0.33078        1.55338        0.41861
C         -1.86859        1.32114        0.23547
C         -2.24790        2.66733        0.53145
N         -2.53900        3.76378        0.76983
C         -2.76873        0.30395       -0.03203
S         -1.92921       -1.17721       -0.31790
C         -4.22087        0.37071       -0.11878
S         -5.01706        1.71133       -0.86579
C         -6.56960        1.03188       -0.58697
H         -7.45683        1.56542       -0.89851
C         -6.49928       -0.17097        0.04515
H         -7.35719       -0.76860        0.32509
C         -5.15230       -0.55751        0.31507
C         -4.82360       -1.77084        0.99440
N         -4.58051       -2.76325        1.54263
C          2.15840       -0.78809       -0.06621
C          2.89531        0.48242        0.11711
O          2.48243        1.59599        0.32484
N          4.26964        0.11565        0.05275
C          5.35765        1.01268        0.22863
O          6.35546        0.72954        0.83154
O          5.10194        2.16285       -0.37992
C          6.09481        3.17580       -0.19384
C          4.47048       -1.28831       -0.12570
O          5.52720       -1.84474       -0.23294
C          3.09832       -1.83871       -0.19703
C          2.54703       -3.06601       -0.36609
H          3.03301       -4.02399       -0.48724
S          0.82705       -2.93784       -0.35817
H          5.69721        4.06056       -0.68793
H          7.03839        2.86752       -0.64929
H          6.24997        3.36502        0.87044
