42
COMP51_200130.log	Energy: -2440771.6240174
C          2.10547       -0.58066        0.02209
C          0.67187       -0.35810       -0.01358
C         -0.03241        0.81139       -0.02771
Cl         0.71883        2.36459        0.10244
C         -1.46795        0.64880       -0.07349
C         -2.48896        1.60688       -0.08138
C         -2.24686        3.07325       -0.30478
O         -1.81585        3.53462       -1.33069
O         -2.64236        3.79707        0.74748
C         -2.51139        5.21369        0.59348
C         -3.80469        1.15511       -0.01835
S         -5.21921        2.18657       -0.01899
C         -6.25858        0.80322       -0.05085
H         -7.33135        0.93009       -0.09561
C         -5.59318       -0.37186       -0.03053
Cl        -6.43205       -1.87994       -0.16839
C         -4.15154       -0.21984        0.01778
C         -3.12762       -1.17641        0.03359
C         -3.37630       -2.63096        0.30090
O         -3.96906       -3.04989        1.26205
O         -2.78530       -3.40211       -0.62030
C         -2.87862       -4.81093       -0.38758
C         -1.81193       -0.72399       -0.04469
S         -0.40094       -1.75089       -0.05720
C          2.75554       -1.79212        0.10471
F          2.12294       -2.95556        0.17574
N          4.09645       -1.80999        0.10820
C          4.54203       -0.58236        0.02371
S          3.33685        0.65246       -0.06168
C          5.95592       -0.25385        0.00823
S          7.16941       -1.48916        0.10536
C          8.37157       -0.26129        0.02068
H          9.42952       -0.47328        0.04235
C          7.75729        0.95140       -0.07086
F          8.40018        2.10474       -0.15173
N          6.40613        0.96978       -0.07898
H         -2.89559        5.64349        1.51718
H         -3.09110        5.55882       -0.26555
H         -1.46173        5.47959        0.44958
H         -2.36007       -5.27798       -1.22336
H         -3.92608       -5.11887       -0.35993
H         -2.40030       -5.07152        0.55925
