39
COMP21_100320.log	Energy: -1587632.3527683
C          2.45427       -0.00341        0.07206
C          0.99553       -0.09644        0.04028
C          0.14882        0.81916       -0.49795
F          0.57064        1.89555       -1.15663
C         -1.24682        0.54089       -0.32483
C         -2.36823        1.28282       -0.71646
O         -2.28235        2.47033       -1.37113
C         -1.94874        3.58408       -0.53871
C         -3.61466        0.74260       -0.42743
S         -5.14307        1.49736       -0.81639
C         -6.00668        0.17595       -0.07999
H         -7.08690        0.16391       -0.05265
C         -5.18243       -0.76797        0.41696
F         -5.61362       -1.87794        1.02199
C         -3.77837       -0.49657        0.23852
C         -2.65471       -1.22962        0.63914
O         -2.73038       -2.40574        1.32217
C         -3.03249       -3.54071        0.51448
C         -1.40749       -0.69013        0.35135
S          0.11554       -1.43397        0.76994
C          3.28158       -1.10377       -0.33419
N          2.84212       -2.28960       -0.75606
S          4.15922       -3.17219       -1.10035
N          5.33129       -2.10688       -0.74334
C          4.71438       -0.99896       -0.32857
C          5.35163        0.20226        0.08035
H          6.43189        0.28181        0.07497
C          4.55661        1.24071        0.47811
C          5.17506        2.46452        0.90642
N          5.69773        3.44088        1.24560
C          3.11153        1.13831        0.49073
C          2.36590        2.25606        0.99400
N          1.76812        3.15394        1.41666
H         -1.93619        4.45385       -1.19577
H         -0.96360        3.45841       -0.07979
H         -2.70708        3.71946        0.24089
H         -3.02061       -4.39970        1.18613
H         -2.27535       -3.67220       -0.26765
H         -4.02337       -3.44672        0.06027
