29
COMP17_200000.log	Energy: -1759066.7978389
C          3.44123       -0.83608       -0.00003
C          2.16848       -0.16537       -0.01732
C          1.94162        1.18575       -0.08039
H          2.72112        1.93581       -0.13032
C          0.56002        1.49272       -0.08345
Cl        -0.00890        3.12757       -0.15842
C         -0.27640        0.40055       -0.02695
S          0.67361       -1.05512        0.04106
C         -1.72334        0.41003       -0.02137
C         -2.49636       -0.69209       -0.01439
C         -3.94685       -0.75567       -0.00738
C         -4.94076        0.19523        0.06539
Cl        -4.68116        1.90604        0.18828
C         -6.26286       -0.32949        0.04231
H         -7.14862        0.29100        0.09225
C         -6.27299       -1.68738       -0.04823
H         -7.13206       -2.34251       -0.08428
S         -4.68248       -2.33332       -0.10605
C          3.77286       -2.13732       -0.00512
C          5.22298       -2.39513        0.01752
C          5.99108       -1.30415        0.03933
H          7.06756       -1.20900        0.05699
S          4.96453        0.14730        0.04067
O          5.10635        0.89013       -1.20497
O          5.06471        0.85279        1.31137
H         -2.16831        1.39783       -0.02903
H         -2.00883       -1.66659       -0.02039
H          3.05236       -2.94736       -0.02838
H          5.61670       -3.40513        0.01377
