46
COMP46_000022.log	Energy: -1052425.4009968
C         -1.70322        1.51631        0.03287
C         -0.24860        1.39007       -0.11223
C          0.37672        0.15211        0.11982
C          1.74554        0.05335       -0.02581
C          2.64729       -1.17928        0.15083
O          2.44931       -1.84490        1.37524
C          2.59336       -1.05681        2.53626
O          2.51648       -2.12878       -0.85470
C          1.24117       -2.73557       -0.99251
C          4.03404       -0.56552       -0.01366
C          5.25690       -1.20041        0.09355
C          6.41424       -0.44897       -0.12004
H          7.38784       -0.92268       -0.03826
C          6.33163        0.90679       -0.43895
C          5.09454        1.54132       -0.54802
C          3.94520        0.79188       -0.32948
C          2.52210        1.17559       -0.34324
C          1.91582        2.40248       -0.57529
C          0.53193        2.49819       -0.47001
C         -2.70574        0.58790       -0.07594
C         -2.84401       -0.85664       -0.39942
O         -2.03077       -1.71840       -0.63387
N         -4.23274       -1.07181       -0.34821
O         -4.77998       -2.25675       -0.72520
C         -4.94334       -3.11897        0.40346
C         -5.02309        0.05252       -0.05184
O         -6.22412        0.06808        0.03236
C         -4.01110        1.12192        0.12921
C         -4.03402        2.44699        0.40597
H         -4.88335        3.08857        0.59503
S         -2.42172        3.06624        0.42622
H         -0.21313       -0.70931        0.41053
H          2.46327       -1.73460        3.38181
H          1.83559       -0.26425        2.59028
H          3.58941       -0.59824        2.59346
H          1.38356       -3.56813       -1.68345
H          0.50657       -2.04154       -1.41474
H          0.87151       -3.11616       -0.03542
H          5.30676       -2.25737        0.33568
H          7.24259        1.47452       -0.60352
H          5.03740        2.59796       -0.79410
H          2.50215        3.27888       -0.83507
H          0.05335        3.45164       -0.67594
H         -5.36827       -4.03565       -0.00668
H         -5.63491       -2.67659        1.12705
H         -3.97520       -3.32990        0.86752
