28
COMP52_020200.log	Energy: -2559329.2534680
C         -0.73935        0.36757       -0.03857
C          0.64043       -0.08652       -0.11248
C          1.06826       -1.27057       -0.65829
H          0.42092       -1.98265       -1.15592
C          2.46732       -1.45171       -0.52568
Cl         3.28072       -2.84521       -1.15121
C          3.10765       -0.42233        0.11161
S          1.96711        0.80071        0.56878
C          4.53158       -0.26965        0.39995
S          5.29254       -1.13356        1.69981
C          6.82191       -0.42693        1.35648
H          7.68759       -0.68896        1.94913
C          6.76748        0.43392        0.30307
H          7.61264        0.98551       -0.08778
C          5.45296        0.51861       -0.23695
Cl         5.07166        1.52272       -1.59588
C         -1.28798        1.62725        0.01654
Cl        -0.38132        3.09639        0.02433
N         -2.64108        1.71406        0.05589
C         -3.16768        0.52221        0.03596
S         -2.03823       -0.78886       -0.01818
C         -4.60036        0.28071        0.06281
S         -5.74010        1.58757        0.12922
C         -7.00814        0.42561        0.12927
H         -8.05040        0.70569        0.16516
C         -6.47486       -0.82830        0.08031
Cl        -7.41377       -2.27850        0.06520
N         -5.11907       -0.91605        0.04265
