35
COMP27_330200.log	Energy: -2012678.5807872
C         -2.90004        0.21185        0.04500
C         -1.48867       -0.13021       -0.19972
C         -1.02920       -1.25322       -0.84157
C         -1.90175       -2.22306       -1.42276
N         -2.62541       -2.99812       -1.88909
C          0.40067       -1.33992       -0.86667
C          1.09079       -2.41340       -1.50048
N          1.66675       -3.28055       -2.01170
C          1.01373       -0.27837       -0.22535
S         -0.17799        0.81196        0.39694
C          2.41233        0.05334       -0.00802
C          3.46288       -0.70277       -0.37943
C          4.86234       -0.37189       -0.16589
C          5.47971        0.68399        0.48096
C          4.79148        1.74850        1.13205
N          4.21741        2.60863        1.65704
C          6.91320        0.60111        0.43903
C          7.78822        1.56427        1.02924
N          8.50301        2.34164        1.50540
C          7.35384       -0.50672       -0.23138
H          8.38070       -0.79699       -0.40329
S          6.05455       -1.45248       -0.81264
C         -3.66321       -0.62804        0.91839
N         -3.20077       -1.69420        1.57032
S         -4.46103       -2.29811        2.39892
N         -5.62346       -1.24364        1.98134
C         -5.05123       -0.36603        1.15511
C         -5.68661        0.74282        0.53627
H         -6.73576        0.94173        0.71707
C         -4.94491        1.53704       -0.28639
Cl        -5.71493        2.88984       -1.04972
C         -3.54731        1.27177       -0.54221
Cl        -2.68909        2.29718       -1.64127
H          2.58127        0.99810        0.49908
H          3.29328       -1.64668       -0.88774
