30
COMP62_410001.log	Energy: -1219324.5610388
C         -2.21438        0.49524       -0.05927
C         -0.90612       -0.06398       -0.01087
C         -0.52083       -1.39544       -0.16452
O         -1.22947       -2.48767       -0.34827
C          0.90241       -1.50155       -0.18357
F          1.49354       -2.68697       -0.32644
C          1.59523       -0.33454       -0.04548
S          0.48866        0.99392        0.13648
C          3.02978       -0.16031       -0.00512
S          4.14957       -1.48880       -0.13349
C          5.50983       -0.43046       -0.00656
H          6.51213       -0.83502       -0.04043
C          5.14051        0.87496        0.12926
O          5.91352        1.97677        0.25434
C          3.72259        1.01090        0.12716
F          3.13743        2.20314        0.24731
C         -3.46586       -0.09035        0.03634
C         -4.11837       -1.33813        0.30870
O         -3.68787       -2.48569        0.49051
N         -5.47455       -0.99922        0.33866
H         -6.19303       -1.68782        0.49975
C         -5.68141        0.35609        0.12649
H         -6.67551        0.77851        0.14739
C         -4.46860        0.93027       -0.06604
C         -3.79676        2.21811       -0.25622
O         -4.19573        3.34663       -0.42072
N         -2.42056        1.85637       -0.21390
H         -1.70323        2.53172       -0.43514
H         -2.17880       -2.45693       -0.01186
H          6.84221        1.71688        0.24277
