32
COMP41_200010.log	Energy: -1864857.2341222
C          2.24232        0.68373       -0.44210
C          0.80016        0.50364       -0.31130
C         -0.13024        1.37226        0.16894
Cl         0.23007        2.93833        0.81400
C         -1.48068        0.87299        0.13701
C         -2.65209        1.50100        0.55883
H         -2.62268        2.50119        0.97831
C         -3.83956        0.80037        0.42280
S         -5.43762        1.36059        0.87170
C         -6.14868       -0.13510        0.33829
H         -7.21564       -0.29013        0.41846
C         -5.23765       -1.00373       -0.14832
Cl        -5.63519       -2.57754       -0.75467
C         -3.88124       -0.50868       -0.12136
C         -2.71059       -1.13698       -0.53912
H         -2.73907       -2.13970       -0.95287
C         -1.52130       -0.43512       -0.40475
S          0.06999       -0.99816       -0.84683
C          3.25954       -0.15071       -0.07411
C          3.41778       -1.44983        0.63628
O          2.58503       -2.19819        1.08912
N          4.80470       -1.65906        0.68919
C          5.41294       -2.81742        1.30665
C          5.55797       -0.64026        0.09179
O          6.76376       -0.61918        0.02749
C          4.55011        0.33367       -0.40018
C          4.54434        1.53447       -1.03165
H          5.38070        2.12732       -1.37583
S          2.92276        2.08765       -1.23411
H          4.60982       -3.43692        1.70714
H          6.08275       -2.50677        2.11221
H          5.98695       -3.38320        0.56847
