47
COMP99_000001.log	Energy: -1360111.4504645
C          0.65951       -0.15905        0.12250
C         -0.81527       -0.12232        0.12861
C         -1.64111       -0.78949        0.99776
C         -3.00780       -0.62484        0.66884
C         -3.19194        0.13437       -0.46213
S         -1.71287        0.67982       -1.13780
C         -4.60997        0.22825       -0.73538
C         -5.29359       -0.46613        0.23418
C         -4.33832       -1.08207        1.24460
C         -4.44947       -2.61491        1.26492
C         -4.56333       -0.50094        2.65043
C         -6.70043       -0.42553        0.04751
C         -7.04212        0.29865       -1.06057
H         -8.03269        0.49508       -1.44718
S         -5.66029        0.94308       -1.89231
C          1.24874       -1.44108       -0.03324
C          2.60530       -1.60644       -0.12406
C          3.16694       -2.97377       -0.29716
O          2.49326       -3.98154       -0.33133
N          4.54933       -3.03075       -0.42284
H          4.94440       -3.95605       -0.54558
C          5.46083       -1.98140       -0.40213
O          6.64978       -2.18556       -0.52731
C          4.86894       -0.62893       -0.21643
C          5.69573        0.47029       -0.17698
H          6.76537        0.32845       -0.28668
C          5.14645        1.75038        0.00400
C          3.78649        1.91439        0.14353
C          3.25048        3.28384        0.34813
O          3.93650        4.28467        0.37353
N          1.88019        3.34526        0.53172
H          1.50077        4.26168        0.74056
C          0.95305        2.30600        0.56019
O         -0.19512        2.54132        0.86665
C          1.49181        0.95213        0.22588
C          2.90483        0.80194        0.09960
C          3.46628       -0.48295       -0.08261
H         -1.26437       -1.35224        1.84513
H         -4.29045       -3.03146        0.26608
H         -5.44122       -2.92206        1.61466
H         -3.70341       -3.04389        1.94309
H         -4.47754        0.58934        2.63742
H         -3.82193       -0.89778        3.35275
H         -5.55938       -0.76755        3.02077
H         -7.42955       -0.90284        0.69221
H          0.60626       -2.31249       -0.10439
H          5.77983        2.63041        0.03855
