46
COMP84_200000.log	Energy: -1819326.9339476
C          1.33592        0.02163        0.04688
C          2.80683       -0.01673        0.05057
C          3.70110        0.84626        0.62573
Cl         3.28906        2.23455        1.57670
C          5.05471        0.46017        0.41441
S          6.59764        1.09377        0.87546
C          7.40091       -0.21234        0.05818
H          8.48000       -0.27335        0.05534
C          6.53167       -1.07839       -0.52871
Cl         7.00013       -2.48433       -1.42149
C          5.17387       -0.69720       -0.32500
S          3.63057       -1.32613       -0.77841
C          0.59612       -1.13953        0.28884
C         -0.79703       -1.13053        0.28756
C         -1.48396        0.05842        0.04752
C         -2.90318        0.44262       -0.09250
C         -2.86703        1.91955       -0.45458
O         -3.78236        2.69971       -0.63919
N         -1.54289        2.28976       -0.49409
C         -1.09869        3.63255       -0.77422
C         -0.71490        1.21096       -0.21900
C          0.66579        1.22167       -0.22644
C         -4.06175       -0.25787        0.06556
C         -4.11178       -1.64810        0.68548
O         -3.20983       -2.33223        1.13295
N         -5.43168       -2.02490        0.71595
C         -5.88999       -3.28080        1.25482
C         -6.24453       -1.04502        0.15787
C         -7.61490       -1.11638       -0.01795
C         -8.24504       -0.03477       -0.63338
H         -9.32013       -0.06002       -0.78450
C         -7.50784        1.06557       -1.05732
C         -6.12678        1.12375       -0.86892
C         -5.46961        0.06428       -0.24180
H          1.11318       -2.06812        0.50979
H         -1.34089       -2.03798        0.49695
H         -1.98772        4.24944       -0.90809
H         -0.49565        3.65858       -1.68833
H         -0.50458        4.02150        0.05925
H          1.21681        2.12629       -0.45645
H         -5.01852       -3.81098        1.63994
H         -6.37012       -3.88390        0.47650
H         -6.60348       -3.11214        2.06830
H         -8.17749       -1.98596        0.30543
H         -8.00891        1.89872       -1.53942
H         -5.57013        1.98949       -1.19085
