39
COMP98_000001.log	Energy: -1083588.4437352
C          0.47438       -0.58469       -0.33864
C          1.90807       -0.87810       -0.41665
C          2.92039       -0.32476        0.31500
O          2.74836        0.64322        1.24393
C          3.96372        1.34013        1.50778
C          5.08796        0.35274        1.77184
O          5.34188       -0.45395        0.62668
C          4.20313       -0.89055        0.02923
C          4.14666       -1.87606       -0.90723
H          4.97095       -2.44747       -1.30754
S          2.53086       -2.13337       -1.45186
C         -0.39391       -1.69533       -0.15731
C         -1.74083       -1.54043        0.01853
C         -2.59181       -2.74376        0.22529
O         -2.16939       -3.88041        0.21822
N         -3.94018       -2.48149        0.43270
H         -4.53192       -3.29176        0.57654
C         -4.58035       -1.24849        0.47549
O         -5.77487       -1.17336        0.67240
C         -3.70218       -0.06665        0.25955
C         -4.25380        1.19389        0.27957
H         -5.31875        1.30181        0.45367
C         -3.43333        2.31368        0.07240
C         -2.08276        2.16076       -0.15119
C         -1.26377        3.37500       -0.38435
O         -1.69847        4.50831       -0.35298
N          0.06775        3.12235       -0.65753
H          0.63472        3.93076       -0.88523
C          0.73552        1.90131       -0.74242
O          1.88869        1.89639       -1.11570
C         -0.07667        0.69637       -0.38758
C         -1.47820        0.87528       -0.17124
C         -2.31515       -0.24606        0.03772
H          3.77673        1.95724        2.38833
H          4.20489        1.98233        0.65265
H          4.82636       -0.28790        2.62422
H          6.02142        0.87571        1.98910
H          0.02158       -2.69758       -0.12454
H         -3.84476        3.31733        0.08142
