24
COMP54_000200.log	Energy: -1933990.4742718
C          0.60765        0.50845       -0.03515
C          2.01470        0.14114       -0.01622
C          2.53767       -1.04299       -0.47080
H          1.94515       -1.80839       -0.95817
C          3.93534       -1.12041       -0.24068
S          5.17354       -2.28654       -0.57521
C          6.37497       -1.24523        0.12874
H          7.40537       -1.57255        0.16050
C          5.87140       -0.06971        0.59500
H          6.47037        0.69994        1.06484
C          4.46289       -0.00269        0.38280
S          3.23839        1.17606        0.70051
C         -0.02360        1.72391       -0.16331
Cl         0.78223        3.24130       -0.34263
N         -1.38020        1.72239       -0.16767
C         -1.82868        0.50526       -0.03864
S         -0.61519       -0.71888        0.11563
C         -3.24357        0.17554       -0.02230
S         -4.45930        1.40487       -0.17301
C         -5.65679        0.17632       -0.05303
H         -6.71408        0.39230       -0.09126
C         -5.05019       -1.03649        0.08733
Cl        -5.90104       -2.53258        0.23977
N         -3.69076       -1.04331        0.10532
