42
COMP67_410002.log	Energy: -1411476.9870009
C          2.64969       -0.58279        0.00435
C          1.28848       -1.01099       -0.18173
C          0.76564       -2.22425       -0.55414
F          1.45924       -3.31405       -0.90100
C         -0.64494       -2.27454       -0.61466
O         -1.35097       -3.37353       -0.96352
C         -1.22466       -1.06979       -0.29226
S         -0.01527        0.11680        0.08034
C         -2.64717       -0.80551       -0.27464
C         -3.21634        0.40983       -0.13469
C         -4.64561        0.63668       -0.03646
C         -5.59757       -0.18821        0.51550
O         -5.41229       -1.38772        1.10717
C         -6.90453        0.38195        0.45123
F         -7.96357       -0.26585        0.93241
C         -6.94691        1.60968       -0.12332
H         -7.81816        2.22626       -0.28662
S         -5.37208        2.11919       -0.60489
C          3.17419        0.68695       -0.01269
C          2.82975        2.06319       -0.34370
O          1.79773        2.64081       -0.62166
N          4.09672        2.70653       -0.21383
O          4.29586        4.02445       -0.49545
C          3.81471        4.84833        0.57145
C          5.11698        1.85602        0.13594
H          6.12526        2.23060        0.24063
C          4.58298        0.61411        0.27253
C          4.93493       -0.76809        0.54368
O          5.94113       -1.32431        0.91702
N          3.70631       -1.45729        0.24803
O          3.47515       -2.68628        0.81259
C          4.14892       -3.71445        0.08029
H         -0.73342       -4.09442       -1.14403
H         -3.26747       -1.68438       -0.43927
H         -2.58024        1.29405       -0.08536
H         -4.46765       -1.49732        1.28972
H          4.02897        5.86938        0.25387
H          4.34716        4.62302        1.50238
H          2.73850        4.71177        0.70139
H          3.76598       -4.64624        0.49856
H          5.22711       -3.63966        0.23334
H          3.90521       -3.65057       -0.98322
