43
COMP21_100430.log	Energy: -1708506.4576078
C          2.77715        0.24005        0.16577
C          1.32146        0.09421        0.11475
C          0.42548        1.06667       -0.17911
F          0.79933        2.28130       -0.57565
C         -0.95649        0.66871       -0.12037
C         -2.12116        1.41835       -0.34220
C         -2.15240        2.90246       -0.49180
O         -2.90584        3.48631       -1.23878
O         -1.32104        3.50907        0.35418
C         -1.26432        4.93076        0.24778
C         -3.33697        0.73679       -0.37042
S         -4.89865        1.43455       -0.74422
C         -5.67349       -0.09788       -0.47147
H         -6.73721       -0.21603       -0.62127
C         -4.80651       -1.07137       -0.13252
F         -5.16949       -2.34031        0.03990
C         -3.43275       -0.63816       -0.04040
C         -2.28024       -1.36370        0.28959
C         -2.37565       -2.74349        0.85988
O         -3.17573       -3.08365        1.69449
O         -1.41929       -3.54323        0.36750
C         -1.36384       -4.85320        0.93558
C         -1.04886       -0.71454        0.18353
S          0.52481       -1.43528        0.42874
C          3.66471       -0.69501       -0.47026
N          3.29702       -1.76883       -1.16034
S          4.66758       -2.49053       -1.67433
N          5.77564       -1.46941       -1.04577
C          5.09573       -0.52386       -0.40728
C          5.66249        0.58311        0.28941
H          6.73937        0.70973        0.32944
C          4.80269        1.44704        0.88676
O          5.17036        2.54767        1.59834
C          3.36274        1.28245        0.84118
O          2.61681        2.18322        1.50103
H         -0.54203        5.24880        0.99814
H         -2.24523        5.36968        0.44390
H         -0.93290        5.22334       -0.75147
H         -0.51936       -5.34320        0.45330
H         -2.29236       -5.39147        0.73289
H         -1.21169       -4.79318        2.01570
H          6.13176        2.61692        1.63657
H          3.21194        2.82290        1.91958
