36
COMP74_000002.log	Energy: -1622192.1449564
C          1.17178       -1.36017       -0.13641
C          2.44260       -0.64930       -0.04599
C          2.80845        0.55196       -0.59112
H          2.12341        1.17578       -1.14445
C          4.16673        0.85723       -0.31413
S          5.21961        2.18231       -0.69237
C          6.52557        1.42142        0.16586
H          7.48661        1.91516        0.21535
C          6.18906        0.22182        0.71558
H          6.87163       -0.39391        1.28743
C          4.82939       -0.09990        0.43458
S          3.77486       -1.41177        0.82744
C         -0.14349       -0.92713       -0.17410
C         -0.62645        0.47906       -0.13309
O          0.11419        1.44807       -0.19189
C         -2.09260        0.62463       -0.02745
C         -2.73109        1.82834        0.09327
O         -2.15069        3.02259        0.15333
C         -2.96503        4.17165        0.30173
S         -4.48201        1.64131        0.17193
C         -4.32332       -0.10581        0.02618
O         -5.37887       -0.91331        0.00852
C         -6.66870       -0.34924        0.16249
C         -3.01580       -0.49122       -0.06740
C         -2.55478       -1.87984       -0.19184
O         -3.29430       -2.84789       -0.25348
C         -1.07509       -2.02381       -0.21418
C         -0.47382       -3.24509       -0.22599
H         -0.96979       -4.20546       -0.24920
S          1.22932       -3.10391       -0.18995
H         -2.27978        5.01827        0.31537
H         -3.52507        4.13827        1.24431
H         -3.65879        4.27562       -0.54163
H         -7.36587       -1.18481        0.11496
H         -6.88908        0.35721       -0.64735
H         -6.76495        0.15340        1.13258
