29
COMP23_000200.log	Energy: -1234513.4734249
C          0.10425       -0.03495        0.01530
C         -1.37830        0.01141        0.13914
C         -2.15744       -0.33836       -0.96407
C         -3.54825       -0.29371       -0.91599
C         -4.38541       -0.65874       -2.11596
C         -4.14476        0.10983        0.27964
H         -5.22914        0.15150        0.35128
C         -3.37338        0.45572        1.38157
C         -1.97916        0.41821        1.33693
C         -1.15504        0.80233        2.53886
C          0.83560        1.18513       -0.15861
N          0.30022        2.40599       -0.20464
S          1.53792        3.43974       -0.40974
N          2.78950        2.40024       -0.45015
C          2.26409        1.18389       -0.29840
C          2.98388       -0.04065       -0.26925
H          4.06103       -0.04667       -0.37977
C          2.27801       -1.19232       -0.09917
Cl         3.15018       -2.69422       -0.05990
C          0.83800       -1.19300        0.04788
Cl         0.02666       -2.70823        0.29345
H         -1.66106       -0.65373       -1.87874
H         -3.77448       -1.09706       -2.91039
H         -4.88678        0.22392       -2.52949
H         -5.16299       -1.38287       -1.85065
H         -3.86356        0.76138        2.30245
H         -1.78330        0.90126        3.42837
H         -0.64961        1.76120        2.37643
H         -0.38363        0.05439        2.75205
