26
COMP32_000000.log	Energy: -1087138.4261152
C         -1.84692       -0.12132        0.10441
C         -0.41059       -0.38394        0.25524
C          0.18318       -1.51781        0.75252
H         -0.37658       -2.36040        1.13430
C          1.59797       -1.46607        0.73369
H          2.23414       -2.25637        1.11560
C          2.08846       -0.29727        0.21044
S          0.79870        0.75733       -0.26119
C          3.47579        0.10803        0.03737
S          4.72197       -1.07901       -0.21101
C          5.93912        0.13769       -0.30151
H          6.97324       -0.13864       -0.45415
C          5.41409        1.38802       -0.16376
H          6.00918        2.29305       -0.19069
C          4.00434        1.37276        0.03174
H          3.40591        2.26379        0.18588
C         -2.38699        1.16977        0.14217
F         -1.58671        2.22673        0.31438
C         -3.74742        1.40365       -0.00015
F         -4.19055        2.66070        0.04797
C         -4.63691        0.35942       -0.18172
H         -5.69855        0.54122       -0.29176
C         -4.12451       -0.92557       -0.22377
F         -4.94115       -1.96481       -0.40468
C         -2.76376       -1.16357       -0.08877
F         -2.34750       -2.43135       -0.15672
