36
COMP53_000030.log	Energy: -1144167.4655225
C          0.17129        0.23483        0.27926
C         -1.28686        0.34744        0.07987
C         -2.06688       -0.80910        0.13822
C         -3.45273       -0.74523        0.01415
C         -4.31012       -1.96750        0.05605
O         -5.51440       -1.95328       -0.05708
O         -3.59463       -3.08625        0.23139
C         -4.34938       -4.29725        0.26944
C         -4.08030        0.48839       -0.14850
H         -5.16067        0.52365       -0.23682
C         -3.31775        1.64469       -0.20353
C         -1.92480        1.58587       -0.11312
C         -1.13374        2.84146       -0.32353
O         -0.06005        2.90276       -0.87170
O         -1.79080        3.91667        0.14078
C         -1.13770        5.16732       -0.08053
C          0.92981        0.78530        1.27345
H          0.53776        1.41374        2.06455
N          2.26436        0.50179        1.24249
C          2.54195       -0.26833        0.22837
S          1.18491       -0.70072       -0.76469
C          3.88031       -0.75031       -0.07792
S          5.24698       -0.28030        0.88936
C          6.24490       -1.23782       -0.13624
H          7.31027       -1.31900        0.02552
C          5.49255       -1.82604       -1.10815
H          5.87461       -2.48059       -1.88169
N          4.15237       -1.54749       -1.07213
H         -1.58584       -1.76791        0.29673
H         -3.62000       -5.09004        0.43106
H         -4.87656       -4.44706       -0.67573
H         -5.07676       -4.27015        1.08401
H         -3.79711        2.60739       -0.33832
H         -1.80426        5.92199        0.33538
H         -0.98305        5.33587       -1.14886
H         -0.16986        5.18674        0.42590
