46
COMP73_000030.log	Energy: -1314811.5929202
C          0.63929       -0.74652       -0.87355
C          1.83274        0.05587       -0.51923
C          2.90115       -0.60070        0.09075
C          4.05869        0.08987        0.44845
C          5.21480       -0.58691        1.10539
O          6.23954       -0.02574        1.41972
O          4.99324       -1.89275        1.31393
C          6.05787       -2.59712        1.95160
C          4.15345        1.45648        0.20369
H          5.05787        1.98267        0.48906
C          3.09277        2.12190       -0.39500
C          1.93936        1.43551       -0.76817
C          0.83860        2.17105       -1.46512
O          0.10300        1.69186       -2.29578
O          0.78248        3.45163       -1.07731
C         -0.26340        4.21616       -1.67274
C         -0.66674       -0.66071       -0.45487
C         -1.21998        0.36632        0.45912
O         -0.55236        1.29171        0.90088
C         -2.65053        0.19820        0.79067
C         -3.33895        1.02698        1.63982
C         -2.85146        2.22233        2.39762
S         -4.98702        0.51275        1.75677
C         -4.76945       -0.81245        0.66634
C         -5.90679       -1.71748        0.30972
C         -3.46871       -0.85129        0.23612
C         -2.93346       -1.85231       -0.70630
O         -3.60804       -2.74511       -1.19654
C         -1.49144       -1.69573       -1.01193
C         -0.80707       -2.53368       -1.84158
H         -1.20901       -3.38292       -2.37657
S          0.84135       -2.08439       -1.95517
H          2.82411       -1.66086        0.30487
H          5.70648       -3.62255        2.06059
H          6.27384       -2.15816        2.92847
H          6.96148       -2.56283        1.33811
H          3.15549        3.18765       -0.58170
H         -0.19016        5.20751       -1.22695
H         -1.23320        3.76445       -1.45083
H         -0.13409        4.27087       -2.75657
H         -2.01015        1.94958        3.04045
H         -3.64455        2.65559        3.01293
H         -2.48056        2.98416        1.70604
H         -6.82408       -1.43237        0.83174
H         -5.66214       -2.75356        0.55921
H         -6.08795       -1.69022       -0.76850
