41
COMP69_000031.log	Energy: -1310247.7659372
C         -2.87991        0.75989        0.09631
C         -1.44908        0.84471        0.05430
C         -0.58214       -0.23069        0.07129
C          0.75509        0.19233        0.00161
C          0.90303        1.56107       -0.06888
S         -0.59988        2.37834       -0.04830
C          2.30799        1.88537       -0.15262
C          3.03746        0.71948       -0.14686
C          2.11452       -0.47818       -0.02089
C          2.40824       -1.22372        1.28901
O          1.73240       -1.19453        2.28187
O          3.56178       -1.89588        1.17211
C          3.97007       -2.61337        2.33940
C          2.22615       -1.45574       -1.19617
O          2.96050       -1.34209       -2.14155
O          1.35969       -2.45691       -1.01330
C          1.30273       -3.43274       -2.05579
C          4.43401        0.93082       -0.24902
C          4.72469        2.26393       -0.32725
H          5.69806        2.72599       -0.41786
S          3.31111        3.27107       -0.28231
C         -3.67686       -0.35946        0.06455
C         -3.62546       -1.80590       -0.03963
O         -2.71037       -2.61204       -0.11095
N         -4.99892       -2.15825       -0.04065
H         -5.30067       -3.11863       -0.08892
C         -5.82804       -1.05731        0.05159
H         -6.90338       -1.16927        0.05880
C         -5.05043        0.05293        0.11784
C         -5.09493        1.51439        0.19569
O         -5.99803        2.31693        0.26955
N         -3.71669        1.86340        0.16656
H         -3.42193        2.82415        0.25602
H         -0.92777       -1.25902        0.12032
H          4.90062       -3.10961        2.06719
H          3.20973       -3.34519        2.62034
H          4.13043       -1.92300        3.17061
H          0.53161       -4.13743       -1.74948
H          2.26902       -3.93149       -2.16088
H          1.03637       -2.95836       -3.00280
H          5.17677        0.14460       -0.27346
