44
COMP77_110002.log	Energy: -1968306.1408978
C         -1.02776       -1.65350        0.36351
C          0.28055       -1.03221        0.49581
C          0.65583       -0.03417        1.34738
F         -0.14228        0.54734        2.22758
C          2.02142        0.32384        1.23468
F          2.54940        1.28178        1.99906
C          2.72085       -0.40380        0.30960
S          1.64749       -1.54366       -0.44954
C          4.11441       -0.34640       -0.08620
C          5.01845        0.51941        0.41161
C          6.41349        0.57549        0.01698
C          7.12113       -0.17402       -0.88329
F          6.60958       -1.16833       -1.61231
C          8.48987        0.19227       -0.99275
F          9.31460       -0.43886       -1.82398
C          8.83724        1.22176       -0.17894
H          9.80754        1.68315       -0.07478
S          7.47656        1.75417        0.73590
C         -2.26540       -1.07554        0.18764
C         -2.52839        0.37897       -0.00522
O         -1.64125        1.21410       -0.02099
C         -3.95336        0.71338       -0.19205
C         -4.42326        1.98715       -0.35647
O         -3.69160        3.09586       -0.37326
C         -4.34239        4.33989       -0.55939
S         -6.17529        2.02561       -0.54505
C         -6.25088        0.27327       -0.39492
O         -7.39915       -0.39265       -0.45403
C         -8.59656        0.33103       -0.67616
C         -5.01309       -0.27729       -0.21243
C         -4.75304       -1.71620       -0.06094
O         -5.61344       -2.57980       -0.09389
C         -3.31691       -2.04994        0.13028
C         -2.86607       -3.33160        0.24801
H         -3.46748       -4.22994        0.22044
S         -1.16765       -3.38535        0.45158
H          4.42221       -1.06557       -0.83864
H          4.71029        1.23996        1.16244
H         -3.55556        5.09245       -0.53202
H         -5.06138        4.53278        0.24634
H         -4.85073        4.37639       -1.53059
H         -9.39318       -0.41162       -0.68171
H         -8.56940        0.84760       -1.64325
H         -8.77502        1.05420        0.12914
