58
COMP82_030003.log	Energy: -1643401.7855535
C          1.45527        0.31180        0.09173
C          2.92050        0.29988        0.19224
C          3.71831        1.15300        0.90365
H          3.34032        1.96045        1.51866
C          5.10230        0.83779        0.79589
C          6.11155        1.57338        1.49081
N          6.91296        2.18700        2.06153
C          5.35337       -0.26395       -0.00344
S          3.87183       -0.89083       -0.63351
C          6.63387       -0.86408       -0.35145
S          8.02240        0.11008       -0.68803
C          8.99930       -1.26787       -1.00434
H         10.04172       -1.14316       -1.26244
C          8.30615       -2.43033       -0.86934
H          8.72824       -3.41650       -1.01376
C          6.94625       -2.20522       -0.49650
C          6.02634       -3.27497       -0.27096
N          5.29920       -4.16159       -0.09796
C          0.72949       -0.87156       -0.07857
C         -0.65635       -0.85838       -0.14032
C         -1.34814        0.34831       -0.01649
C         -2.76390        0.70918       -0.13012
C         -2.80296        2.21652       -0.08269
O         -3.76478        2.94116       -0.10394
N         -1.46556        2.65072        0.10137
C         -1.02731        3.97061        0.27938
O          0.11653        4.25502        0.55093
O         -2.00464        4.84767        0.10873
C         -1.62696        6.21321        0.29770
C         -0.59828        1.53361        0.11265
C          0.78368        1.53826        0.17092
C         -3.89965       -0.04795       -0.18129
C         -3.91836       -1.49055        0.27205
O         -3.00610       -2.14086        0.71567
N         -5.25981       -1.92605        0.18374
C         -5.75793       -3.18429        0.55204
O         -6.93742       -3.44830        0.57302
O         -4.78675       -4.03316        0.85623
C         -5.22787       -5.33275        1.25407
C         -6.06965       -0.88075       -0.32545
C         -7.42003       -0.92563       -0.63517
C         -7.99175        0.21051       -1.20363
H         -9.04968        0.19833       -1.44777
C         -7.23017        1.34442       -1.46948
C         -5.87902        1.37991       -1.14673
C         -5.28270        0.26733       -0.54547
H          1.24734       -1.82444       -0.13417
H         -1.19180       -1.78714       -0.25586
H         -2.54668        6.77996        0.16306
H         -0.87900        6.50862       -0.44139
H         -1.22249        6.36375        1.30082
H          1.32468        2.46910        0.25463
H         -4.31625       -5.87970        1.48914
H         -5.77069       -5.81769        0.43954
H         -5.87562       -5.26662        2.13089
H         -8.00185       -1.81397       -0.44055
H         -7.69043        2.21406       -1.92690
H         -5.29968        2.26759       -1.34499
