37
COMP47_130002.log	Energy: -1576167.4362772
C          2.87140        1.00506       -0.12409
C          1.42934        1.17147       -0.04682
C          0.70190        2.34597        0.09885
C          1.22565        3.66395        0.23446
N          1.62280        4.74757        0.34649
C         -0.69683        2.11161        0.11378
F         -1.55578        3.12078        0.24800
C         -1.06627        0.80073       -0.01592
S          0.35570       -0.18409       -0.15210
C         -2.37797        0.18100       -0.04368
C         -3.54142        0.84698        0.08499
C         -4.85606        0.23251        0.05502
C         -5.23184       -1.07569       -0.09681
F         -4.37372       -2.08056       -0.25621
C         -6.63888       -1.30349       -0.07207
C         -7.24009       -2.58948       -0.21370
N         -7.72988       -3.63315       -0.32848
C         -7.33212       -0.13345        0.10296
H         -8.40457       -0.01400        0.16006
S         -6.28537        1.21135        0.23291
C          3.62991       -0.14119       -0.12951
C          3.41144       -1.60898       -0.04382
O          2.39847       -2.26078        0.03241
N          4.71126       -2.13763       -0.05402
O          4.93038       -3.47427       -0.15561
C          5.11632       -4.05431        1.13908
C          5.75291       -1.20125       -0.19565
O          6.92706       -1.45557       -0.25286
C          5.02651        0.09305       -0.22401
C          5.36142        1.40412       -0.29875
H          6.34200        1.85355       -0.37539
S          3.94854        2.38656       -0.25370
H         -2.38848       -0.89552       -0.18068
H         -3.52787        1.92323        0.22371
H          5.28808       -5.11359        0.94666
H          4.21688       -3.92500        1.74841
H          5.98916       -3.61624        1.63200
