39
COMP68_000003.log	Energy: -1083049.5582694
C          0.72333       -0.48950        0.03104
C          1.41934        0.74545        0.28087
C          1.02649        1.96956       -0.20295
O          0.08310        2.14696       -1.14419
C         -0.43239        3.47796       -1.13263
C          0.71058        4.47845       -1.13949
O          1.51554        4.35163        0.03083
C          1.76613        3.05881        0.35661
C          2.70607        2.64632        1.24996
H          3.39207        3.26681        1.80783
S          2.72241        0.93128        1.42356
C         -0.62537       -0.67389       -0.04382
C         -1.87411        0.05165        0.15065
O         -2.12070        1.21447        0.35500
N         -2.86421       -1.01924        0.05627
C         -4.26002       -0.94301        0.14508
O         -4.96411       -1.92377        0.08288
O         -4.67978        0.30405        0.29797
C         -6.09739        0.44953        0.40285
C         -2.24404       -2.26148       -0.11316
H         -2.84836       -3.15609       -0.13979
C         -0.91270       -2.06957       -0.18571
C          0.34395       -2.81230       -0.22054
O          0.58413       -3.97893       -0.38467
N          1.33919       -1.75923       -0.05245
C          2.70560       -1.93908       -0.36770
O          3.36845       -1.13190       -0.96848
O          3.13338       -3.10197        0.10121
C          4.47486       -3.44005       -0.25548
H         -1.06892        3.60363       -0.25070
H         -1.03831        3.57504       -2.03444
H          0.32948        5.50143       -1.13619
H          1.33308        4.32797       -2.03079
H         -6.26466        1.51781        0.53033
H         -6.47610       -0.10490        1.26432
H         -6.58703        0.08679       -0.50362
H          4.65115       -4.41648        0.19256
H          5.17272       -2.69898        0.14051
H          4.57929       -3.49165       -1.34163
