34
COMP52_340400.log	Energy: -1710236.2589073
C         -1.15297       -0.10122        0.30929
C          0.21174        0.37244        0.24021
C          0.69295        1.66194        0.34652
C         -0.07316        2.83391        0.60071
N         -0.59980        3.84785        0.80698
C          2.11707        1.74470        0.22535
O          2.82388        2.89045        0.30441
C          2.72549        0.53056        0.03685
S          1.51905       -0.73095       -0.04507
C          4.14159        0.26217       -0.09728
S          5.35388        1.51878       -0.03894
C          6.62558        0.40360       -0.26924
H          7.65399        0.73332       -0.31011
C          6.16473       -0.88155       -0.38550
C          6.95913       -2.04725       -0.58573
N          7.52614       -3.04635       -0.74940
C          4.73846       -0.96006       -0.28644
O          4.02037       -2.10143       -0.36514
C         -1.61881       -1.27757        0.87239
O         -0.90688       -2.22185        1.50476
N         -2.95288       -1.49724        0.78229
C         -3.53448       -0.50853        0.15957
S         -2.50204        0.77564       -0.36212
C         -4.96471       -0.46077       -0.09352
S         -6.01517       -1.73248        0.43245
C         -7.33350       -0.86400       -0.25918
H         -8.34464       -1.24312       -0.21678
C         -6.87882        0.30029       -0.82203
O         -7.59558        1.24683       -1.45806
N         -5.54076        0.52333       -0.72655
H          2.23226        3.64041        0.46272
H          4.60475       -2.85558       -0.52761
H          0.00244       -1.91875        1.64039
H         -8.52525        0.99067       -1.46261
