38
COMP62_320002.log	Energy: -1836547.5553152
C         -2.13469        0.52669        0.11853
C         -0.71926        0.69077       -0.15764
C         -0.03042        1.77209       -0.67435
C         -0.62095        2.98805       -1.12421
N         -1.06580        3.97483       -1.53804
C          1.36549        1.50443       -0.80431
Cl         2.48281        2.66208       -1.41688
C          1.72095        0.24807       -0.39116
S          0.33642       -0.63279        0.14784
C          3.05251       -0.35377       -0.38009
S          3.80565       -0.91835       -1.84058
C          5.20386       -1.42461       -1.00133
H          6.03594       -1.87605       -1.52354
C          5.11515       -1.18483        0.34460
C          6.14596       -1.51238        1.27638
N          6.98910       -1.78405        2.02313
C          3.87045       -0.56703        0.69471
Cl         3.46944       -0.12941        2.31076
C         -2.89722       -0.60118       -0.00854
C         -2.87468       -1.94125       -0.59349
O         -2.00986       -2.63696       -1.07966
N         -4.23254       -2.34147       -0.41982
O         -4.72699       -3.51622       -0.89820
C         -4.38346       -4.60342       -0.03141
C         -5.01950       -1.38089        0.16749
H         -6.07408       -1.56271        0.32004
C         -4.23074       -0.30832        0.44119
C         -4.26419        1.05312        0.95232
O         -5.09566        1.70933        1.53166
N         -2.95206        1.54051        0.59937
O         -2.38948        2.59521        1.27677
C         -3.03150        3.83883        0.94875
H         -4.83333       -5.48113       -0.49622
H         -4.80622       -4.44723        0.96711
H         -3.29836       -4.72039        0.02256
H         -2.34037        4.60135        1.30879
H         -3.99264        3.90802        1.45899
H         -3.15374        3.93520       -0.13160
