52
COMP97_240000.log	Energy: -2055908.6985237
C          1.57390       -0.33068        0.27199
C          0.17837       -0.77181        0.42561
C         -0.38145       -1.73111        1.24226
O          0.27160       -2.63279        1.98150
C         -1.80834       -1.64644        1.27907
Cl        -2.74203       -2.74369        2.23070
C         -2.34319       -0.64944        0.50590
S         -1.07138        0.21381       -0.30112
C         -3.74824       -0.35603        0.31014
C         -4.21691        0.70628       -0.36990
C         -5.60480        1.05183       -0.61610
C         -6.79301        0.39638       -0.39914
Cl        -6.97929       -1.19127        0.28256
C         -7.95562        1.12426       -0.80729
O         -9.22232        0.67653       -0.69308
C         -7.63683        2.33951       -1.33710
H         -8.32299        3.08156       -1.71688
S         -5.93613        2.59706       -1.34085
C          1.78639        1.05752        0.53176
C          3.01278        1.64943        0.42458
C          3.15392        3.09695        0.75178
O          2.20956        3.76646        1.11813
N          4.43200        3.64283        0.61189
C          4.62854        5.05751        0.92367
C          5.56253        2.94551        0.18276
O          6.63388        3.50963        0.08406
C          5.39088        1.50390       -0.14258
C          6.46916        0.77577       -0.59532
H          7.43094        1.26478       -0.70261
C          6.29897       -0.57562       -0.92937
C          5.07081       -1.18863       -0.78278
C          4.93745       -2.60131       -1.20154
O          5.86131       -3.24148       -1.66131
N          3.66911       -3.16653       -1.03740
C          3.49160       -4.57512       -1.39283
C          2.58824       -2.54401       -0.42974
O          1.59729       -3.22573       -0.18765
C          2.68012       -1.09715       -0.12133
C          3.95354       -0.47446       -0.28904
C          4.12829        0.89445        0.00304
H          0.93319       -3.03405        1.37991
H         -4.42677       -1.06505        0.76996
H         -3.50171        1.41472       -0.78703
H         -9.21147       -0.20241       -0.28877
H          0.95347        1.66787        0.86283
H          3.67820        5.46034        1.26542
H          4.96828        5.58775        0.03177
H          5.38883        5.15888        1.70018
H          7.12428       -1.16176       -1.31851
H          4.36679       -4.88408       -1.95907
H          2.58478       -4.68626       -1.98755
H          3.39566       -5.18193       -0.48949
