29
COMP22_100300.log	Energy: -1396127.4901663
C          1.71375        0.13926        0.11026
C          0.30104       -0.16603        0.33298
C         -0.21300       -1.11142        1.18030
F          0.54565       -1.85140        1.98328
C         -1.62232       -1.21448        1.18351
H         -2.17477       -1.88220        1.83223
C         -2.19188       -0.33241        0.30260
S         -0.99585        0.60808       -0.52531
C         -3.60427       -0.13641        0.01485
S         -4.71145       -1.47382        0.09522
C         -6.04735       -0.47371       -0.33282
H         -7.04860       -0.86901       -0.41750
C         -5.63349        0.80610       -0.53630
F         -6.45354        1.79887       -0.88069
C         -4.24375        1.02058       -0.34134
H         -3.76474        1.98772       -0.43341
C          2.62508       -0.92362       -0.20894
N          2.29602       -2.20766       -0.35061
S          3.66666       -2.99495       -0.71221
N          4.72445       -1.76298       -0.72245
C          4.02034       -0.66711       -0.43184
C          4.53372        0.65470       -0.35899
H          5.58540        0.84649       -0.53341
C          3.65645        1.66266       -0.07052
C          4.14794        3.01027        0.00622
N          4.56908        4.08785        0.06132
C          2.25067        1.41017        0.17365
C          1.42313        2.52902        0.52427
N          0.77151        3.44213        0.81433
