29
COMP42_040001.log	Energy: -1309959.6584183
C          1.80596       -0.51470        0.00094
C          0.44423       -0.03099        0.00113
C          0.04364        1.28300        0.00241
H          0.74516        2.11138        0.00325
C         -1.36259        1.41560        0.00169
O         -2.03191        2.59787        0.00336
C         -2.04702        0.21694       -0.00007
S         -0.91805       -1.10973       -0.00056
C         -3.47920        0.01926       -0.00101
S         -4.61717        1.34480       -0.00172
C         -5.95682        0.26973        0.00000
H         -6.96450        0.66173       -0.00024
C         -5.57661       -1.03840       -0.00042
H         -6.26829       -1.87414       -0.00130
C         -4.16036       -1.17799       -0.00081
O         -3.49027       -2.36051       -0.00371
C          2.99383        0.17841       -0.00028
C          3.45015        1.58811       -0.00018
O          2.83348        2.63238        0.00009
N          4.84815        1.50196       -0.00045
H          5.43743        2.32205       -0.00200
C          5.36222        0.19873       -0.00133
O          6.53136       -0.09836       -0.00243
C          4.14620       -0.65519       -0.00064
C          3.87725       -1.98206        0.00028
H          4.56165       -2.81877       -0.00001
S          2.16535       -2.23157        0.00176
H         -1.39699        3.32351       -0.00248
H         -4.12017       -3.08915        0.02550
