32
COMP52_410300.log	Energy: -1740352.4988085
C          0.88680        0.41974        0.24244
C         -0.50232        0.03078        0.35058
C         -1.00376       -1.10022        0.95848
O         -0.34191       -2.06627        1.62299
C         -2.41824       -1.18722        0.84143
F         -3.09338       -2.18428        1.39682
C         -2.99333       -0.15629        0.15684
S         -1.78508        0.97018       -0.37371
C         -4.40344        0.03960       -0.11813
S         -5.17620        1.59455       -0.01197
C         -6.70346        0.93085       -0.48075
H         -7.57043        1.57152       -0.56465
C         -6.63374       -0.41368       -0.69404
O         -7.61043       -1.27073       -1.06518
C         -5.31068       -0.91041       -0.48683
F         -5.01480       -2.19085       -0.67227
C          1.46555        1.67576        0.27537
C          0.74627        2.89608        0.48060
N          0.16040        3.88137        0.64970
N          2.82607        1.72570        0.12577
C          3.31398        0.53220       -0.01333
S          2.14401       -0.75674       -0.01207
C          4.73300        0.25189       -0.16368
S          5.91226        1.53177       -0.19512
C          7.13265        0.34467       -0.38286
H          8.17908        0.60147       -0.46676
C          6.57374       -0.90527       -0.40722
C          7.32723       -2.11609       -0.54946
N          7.96014       -3.07907       -0.66414
N          5.20886       -0.95240       -0.28280
H          0.55180       -1.77426        1.84828
H         -8.43761       -0.78605       -1.17060
