34
COMP57_320100.log	Energy: -2271331.9255436
C         -2.29802       -0.21180       -0.01016
C         -0.93244        0.27199       -0.01528
C         -0.44361        1.55608       -0.02076
Cl        -1.41559        2.98247       -0.02618
C          0.98193        1.63988       -0.02300
C          1.67717        2.88304       -0.03303
N          2.26038        3.88564       -0.04001
C          1.59042        0.39779       -0.01851
S          0.39811       -0.85306       -0.01328
C          2.98456       -0.00644       -0.01854
C          4.04443        0.82490        0.02021
C          5.43962        0.42036        0.02120
C          6.04599       -0.82586        0.00180
C          5.34828       -2.06705       -0.02503
N          4.76584       -3.06996       -0.04650
C          7.47533       -0.73902        0.01486
Cl         8.49502       -2.13143       -0.00261
C          7.93777        0.53928        0.04342
H          8.96753        0.86576        0.05831
S          6.64222        1.66594        0.05514
C         -2.70960       -1.52447       -0.00797
F         -1.86176       -2.54482       -0.01180
N         -4.02382       -1.79073       -0.00114
C         -4.68902       -0.66419        0.00238
S         -3.73272        0.77737       -0.00275
C         -6.13887       -0.59735        0.01011
S         -7.11014       -2.03292        0.01539
C         -8.51281       -1.03778        0.02322
H         -9.51467       -1.43910        0.02908
C         -8.12668        0.26935        0.02116
F         -8.96605        1.29117        0.02583
N         -6.80075        0.52942        0.01384
H          3.14472       -1.07979       -0.05175
H          3.88445        1.89812        0.05581
