34
COMP57_120300.log	Energy: -2271320.8095773
C         -2.00978       -0.28383        0.35328
C         -0.63341        0.17955        0.35534
C         -0.13967        1.43706        0.61647
Cl        -1.06983        2.81618        1.06427
C          1.27002        1.50560        0.51024
F          1.92747        2.64033        0.74116
C          1.87750        0.32622        0.16434
S          0.67010       -0.89970       -0.03650
C          3.27748        0.00011       -0.03246
C          4.29134        0.87884        0.08718
C          5.69213        0.55716       -0.10759
C          6.29608       -0.62439       -0.44897
F          5.63552       -1.75785       -0.67659
C          7.71259       -0.55556       -0.54713
Cl         8.68135       -1.92032       -0.96477
C          8.18909        0.69108       -0.27654
H          9.21956        1.01538       -0.27948
S          6.91275        1.78055        0.09638
C         -2.50962       -1.50667        0.76454
C         -1.73163       -2.55248        1.35861
N         -1.10289       -3.39828        1.83991
N         -3.85354       -1.69873        0.60500
C         -4.39830       -0.64250        0.07807
S         -3.31743        0.66814       -0.26945
C         -5.82378       -0.53657       -0.19490
S         -6.90801       -1.84801        0.17174
C         -8.19671       -0.89354       -0.42914
H         -9.21718       -1.24911       -0.44796
C         -7.72520        0.31999       -0.85452
C         -8.55428        1.34831       -1.41072
N         -9.24776        2.16179       -1.85617
N         -6.37486        0.51774       -0.71934
H          3.49002       -1.03222       -0.28976
H          4.07667        1.91034        0.34749
