34
COMP31_100000.log	Energy: -1308796.3938709
C          2.67414        0.09647        0.01524
C          1.20790        0.15638        0.00123
C          0.37084       -0.86115       -0.30604
F          0.83045       -2.05517       -0.69241
C         -1.03763       -0.57152       -0.20409
C         -2.14644       -1.39434       -0.44711
C         -2.06711       -2.83201       -0.88668
C         -3.38727       -0.79411       -0.25118
S         -4.91984       -1.61596       -0.48591
C         -5.79632       -0.18340       -0.03562
H         -6.87650       -0.16914       -0.01859
C         -4.97538        0.83932        0.26860
F         -5.43650        2.03989        0.64258
C         -3.56241        0.55073        0.16328
C         -2.45291        1.37290        0.40414
C         -2.53177        2.81053        0.84421
C         -1.21169        0.77225        0.21050
S          0.31534        1.59730        0.44690
C          3.46078        1.04084       -0.64795
F          2.88184        2.03572       -1.32145
C          4.84680        0.96531       -0.62770
F          5.55484        1.88894       -1.27909
C          5.49230       -0.05686        0.04779
H          6.57360       -0.11781        0.05851
C          4.72459       -0.99883        0.71087
F          5.31390       -1.99147        1.37865
C          3.33781       -0.92304        0.70305
F          2.64392       -1.83858        1.37568
H         -1.04078       -3.17431       -0.99764
H         -2.57763       -2.96629       -1.84795
H         -2.56643       -3.48226       -0.15836
H         -3.55888        3.15034        0.95602
H         -2.03385        3.46197        0.11579
H         -2.02105        2.94523        1.80541
