44
COMP97_010001.log	Energy: -1459936.1062718
C          1.35872       -0.21893        0.28653
C         -0.10011       -0.25636        0.49424
C         -0.75168       -0.92588        1.49105
F         -0.10126       -1.55770        2.47175
C         -2.16300       -0.88634        1.43075
H         -2.80484       -1.33071        2.18045
C         -2.59986       -0.19353        0.33013
S         -1.26327        0.41646       -0.59655
C         -3.95880        0.06300       -0.11955
C         -5.03880       -0.60056        0.32623
C         -6.40677       -0.30786       -0.07055
C         -6.91475        0.79567       -0.70759
H         -6.33819        1.66677       -0.99222
C         -8.31042        0.67954       -0.92519
F         -9.00880        1.64425       -1.52780
C         -8.86914       -0.47289       -0.46396
H         -9.90518       -0.77269       -0.51214
S         -7.66307       -1.46548        0.25970
C          1.98599       -1.47554        0.08499
C          3.32845       -1.57796       -0.16389
C          3.93239       -2.92162       -0.37710
O          3.30544       -3.95830       -0.33162
N          5.29632       -2.91823       -0.64061
H          5.72042       -3.82712       -0.78695
C          6.15429       -1.82847       -0.72900
O          7.33349       -1.98020       -0.96822
C          5.51987       -0.49985       -0.51208
C          6.29263        0.63648       -0.57801
H          7.35199        0.54017       -0.78995
C          5.70402        1.89450       -0.36787
C          4.35905        1.99957       -0.09277
C          3.78141        3.34754        0.13731
O          4.41658        4.37943        0.07296
N          2.43378        3.35105        0.45446
H          2.03204        4.25569        0.67300
C          1.56526        2.27337        0.59798
O          0.43538        2.46675        0.99139
C          2.13642        0.93396        0.26014
C          3.53249        0.84692       -0.02100
C          4.13277       -0.41508       -0.23606
H         -4.08224        0.84219       -0.86894
H         -4.90549       -1.42135        1.02848
H          1.38842       -2.38031        0.11521
H          6.29447        2.80330       -0.41426
