31
COMP22_240400.log	Energy: -1921434.0531078
C          2.21685        0.45930       -0.23488
C          0.85325       -0.07086       -0.35499
C          0.46171       -1.29910       -0.80108
Cl         1.52355       -2.52146       -1.42662
C         -0.94450       -1.51736       -0.74798
O         -1.56588       -2.64974       -1.14740
C         -1.63163       -0.43750       -0.25177
S         -0.52363        0.84826        0.14938
C         -3.06444       -0.31783       -0.07431
S         -4.17581       -1.59498       -0.50652
C         -5.53950       -0.67570       -0.00763
H         -6.54075       -1.07352       -0.08482
C         -5.16225        0.54060        0.46457
Cl        -6.24416        1.76160        1.06732
C         -3.75259        0.75775        0.43218
O         -3.13261        1.88532        0.84708
C          3.17197       -0.15692        0.64332
N          2.94577       -1.21384        1.41534
S          4.33751       -1.51662        2.21028
N          5.27454       -0.31938        1.61176
C          4.51309        0.35926        0.76032
C          4.91296        1.50416        0.00993
H          5.92126        1.89380        0.10592
C          3.98686        2.07180       -0.80488
O          4.19888        3.16530       -1.58770
C          2.63748        1.55793       -0.93709
O          1.80785        2.19280       -1.78366
H         -0.90123       -3.28794       -1.44297
H         -3.79535        2.51627        1.16099
H          5.10773        3.47477       -1.49352
H          2.28592        2.93744       -2.17817
