29
COMP22_010300.log	Energy: -1396129.0158803
C         -1.72818       -0.21619        0.10268
C         -0.29690       -0.46922        0.24815
C          0.30171       -1.58510        0.78121
H         -0.21640       -2.42710        1.21917
C          1.70371       -1.50721        0.70656
F          2.49295       -2.47788        1.17797
C          2.20386       -0.36898        0.12462
S          0.89043        0.67077       -0.32262
C          3.59083       -0.01657       -0.09004
S          4.92156       -1.03641        0.38440
C          6.07730        0.08919       -0.21550
H          7.13240       -0.13154       -0.13317
C          5.50001        1.19803       -0.75608
H          6.03003        2.03423       -1.19243
C          4.08874        1.11827       -0.67554
F          3.29601        2.09002       -1.14174
C         -2.26400        1.11481        0.23160
N         -1.55031        2.21245        0.47993
S         -2.59760        3.44967        0.53287
N         -3.99031        2.66389        0.25502
C         -3.67143        1.37744        0.10568
C         -4.58695        0.32259       -0.14479
H         -5.64779        0.52060       -0.23515
C         -4.07487       -0.93767       -0.26999
C         -4.97971       -2.02373       -0.52913
N         -5.73460       -2.87781       -0.73445
C         -2.65536       -1.21189       -0.16285
C         -2.24742       -2.56931       -0.38153
N         -1.95297       -3.67523       -0.56466
