32
COMP52_310400.log	Energy: -1740362.2135335
C         -1.23572       -0.32191        0.29301
C          0.16842        0.02135        0.35832
C          0.76572        1.17176        0.83430
C          0.07358        2.26719        1.42640
N         -0.48019        3.16196        1.91228
C          2.18829        1.12359        0.73135
F          2.94378        2.11623        1.17123
C          2.68873       -0.02391        0.19295
S          1.37269       -1.07187       -0.25914
C          4.08214       -0.36599       -0.02373
S          4.75206       -1.92133        0.38189
C          6.31271       -1.46999       -0.15485
H          7.13632       -2.16853       -0.11246
C          6.34772       -0.17945       -0.61287
C          7.51260        0.46869       -1.12101
N          8.46040        0.99121       -1.53415
C          5.06124        0.43649       -0.53542
F          4.85524        1.67714       -0.94723
C         -1.81966       -1.55504        0.52865
O         -1.21222       -2.69002        0.90684
N         -3.16153       -1.62349        0.36305
C         -3.63261       -0.45932        0.00476
S         -2.47865        0.81708       -0.14977
C         -5.04227       -0.21663       -0.25200
S         -6.22207       -1.47069       -0.07604
C         -7.42845       -0.33542       -0.54952
H         -8.47068       -0.61225       -0.62028
C         -6.84974        0.88271       -0.79716
O         -7.45231        2.02111       -1.18847
N         -5.50215        0.94433       -0.62821
H         -0.29600       -2.50986        1.15894
H         -8.40089        1.86782       -1.26993
