30
COMP52_300100.log	Energy: -1646000.8071462
C         -0.88264       -0.07624       -0.04649
C          0.48081        0.40690       -0.01083
C          0.95091        1.70205        0.13304
C          0.11754        2.85110        0.27613
N         -0.54335        3.79739        0.39306
C          2.37317        1.79642        0.13862
H          2.90025        2.73398        0.26893
C          2.98329        0.58435       -0.00446
S          1.81676       -0.69226       -0.16271
C          4.40764        0.28458       -0.04094
S          5.53822        1.42832       -0.70421
C          6.86638        0.39828       -0.37931
H          7.87673        0.69573       -0.62271
C          6.46113       -0.77944        0.19357
C          7.36573       -1.82270        0.56554
N          8.09392       -2.67185        0.86860
C          5.04731       -0.84459        0.38986
H          4.54734       -1.68678        0.85308
C         -1.30266       -1.37649       -0.20674
F         -0.46198       -2.39080       -0.35823
N         -2.61816       -1.63457       -0.21078
C         -3.27397       -0.51324       -0.05000
S         -2.30902        0.91382        0.11391
C         -4.72302       -0.44198       -0.00891
S         -5.70251       -1.86358       -0.16930
C         -7.09880       -0.87172       -0.01286
H         -8.10287       -1.26646       -0.04205
C         -6.70507        0.42392        0.14492
F         -7.53835        1.43942        0.29324
N         -5.37819        0.67729        0.14881
