60
COMP81_300000.log	Energy: -1503989.4631874
C         -0.15327        0.00582        0.08486
C         -1.62368        0.01852        0.04714
C         -2.48320       -0.99353       -0.30102
C         -1.98116       -2.25742       -0.73493
N         -1.54435       -3.27842       -1.07278
C         -3.89115       -0.62283       -0.23429
C         -5.04327       -1.37515       -0.51048
C         -5.06508       -2.81620       -0.94810
C         -6.25285       -0.69884       -0.35825
S         -7.81257       -1.44441       -0.65656
C         -8.62857        0.01309       -0.24368
H         -9.70872        0.06402       -0.27615
C         -7.79125        1.02743        0.10479
C         -8.33160        2.29691        0.47506
N         -8.80973        3.31206        0.76918
C         -6.38394        0.65286        0.04935
C         -5.23292        1.40353        0.32870
C         -5.22051        2.84232        0.77266
C         -4.02463        0.72862        0.17295
S         -2.47132        1.47186        0.47724
C          0.57276        1.11969       -0.34927
C          1.96521        1.13567       -0.32674
C          2.66558        0.02267        0.13585
C          4.08967       -0.35653        0.24055
C          4.06822       -1.79199        0.74435
O          4.99113       -2.54057        1.00406
N          2.74774       -2.13351        0.92370
C          2.30919       -3.43251        1.37482
C          1.91049       -1.09491        0.54939
C          0.53029       -1.12300        0.55537
C          5.23915        0.33494       -0.00115
C          5.26573        1.83920       -0.24507
O          4.34966        2.64085       -0.25297
N          6.58071        2.19294       -0.41609
C          7.01738        3.54722       -0.64687
C          7.41250        1.08182       -0.33386
C          8.78530        1.06861       -0.50358
C          9.43568       -0.16218       -0.41346
H         10.51320       -0.20632       -0.54089
C          8.71618       -1.32699       -0.17016
C          7.33220       -1.29617        0.00236
C          6.65476       -0.07794       -0.06564
H         -4.08351       -3.28420       -0.94627
H         -5.47050       -2.90216       -1.96356
H         -5.71159       -3.40460       -0.28616
H         -6.21035        3.29342        0.80131
H         -4.60216        3.44466        0.09649
H         -4.78760        2.92939        1.77652
H          0.04755        1.98735       -0.73614
H          2.49840        2.01173       -0.66005
H          3.19743       -4.05051        1.50771
H          1.64708       -3.89024        0.63235
H          1.77856       -3.35039        2.32923
H         -0.00403       -1.99486        0.91248
H          6.13265        4.18454       -0.63273
H          7.51341        3.63371       -1.61962
H          7.71019        3.86693        0.13857
H          9.33407        1.98264       -0.70506
H          9.23337       -2.27885       -0.10796
H          6.78848       -2.20573        0.20244
