46
COMP65_000030.log	Energy: -824143.3151301
C         -2.07830       -1.10604        0.04229
C         -0.62553       -1.26121       -0.06580
C          0.15775       -0.12515        0.17419
C          1.53711       -0.23939        0.06408
N          2.55484        0.72367        0.24789
C          2.41417        2.09029        0.47503
O          3.34083        2.86113        0.56914
O          1.13099        2.42473        0.56475
C          0.84698        3.81749        0.69451
C          3.80116        0.09363        0.04547
C          5.09094        0.61706        0.11833
C          6.14647       -0.25159       -0.13250
H          7.16082        0.13245       -0.08074
C          5.93712       -1.59992       -0.44681
C          4.65008       -2.11092       -0.51811
C          3.57634       -1.25660       -0.27017
C          2.14415       -1.46530       -0.26472
C          1.35587       -2.58284       -0.53194
C         -0.02079       -2.47786       -0.43737
C         -2.82329        0.03842       -0.13261
C         -2.73188        1.45175       -0.46776
O         -1.79627        2.21873       -0.64287
N         -4.09274        1.86283       -0.52587
C         -4.47912        3.22669       -0.80532
C         -4.94627        0.81931       -0.23746
H         -6.01818        0.96801       -0.24522
C         -4.21030       -0.29190        0.01354
C         -4.31427       -1.70494        0.33787
O         -5.25268       -2.42772        0.60039
N         -2.95552       -2.14787        0.33073
C         -2.64780       -3.47238        0.83298
H         -0.31045        0.81818        0.40996
H         -0.23216        3.89051        0.57272
H          1.36320        4.38300       -0.08382
H          1.16381        4.17853        1.67605
H          5.25709        1.65775        0.35670
H          6.78789       -2.24694       -0.63601
H          4.47792       -3.15567       -0.75948
H          1.81536       -3.52325       -0.81999
H         -0.63028       -3.33784       -0.68503
H         -3.56411        3.77659       -1.03175
H         -4.96823        3.68486        0.06045
H         -5.15041        3.27261       -1.66823
H         -3.49991       -3.79033        1.43689
H         -1.74583       -3.44759        1.44751
H         -2.51911       -4.19786        0.02324
