26
COMP54_300200.log	Energy: -2049707.7602923
C         -0.11389        0.45898       -0.18679
C         -1.52218        0.09275       -0.10937
C         -2.11294       -1.05340       -0.60208
C         -1.42912       -2.05709       -1.34976
N         -0.89881       -2.88838       -1.95945
C         -3.50654       -1.09882       -0.29548
S         -4.79628       -2.20477       -0.62500
C         -5.91637       -1.17936        0.19529
H         -6.95684       -1.46379        0.27245
C         -5.34601       -0.04080        0.70028
C         -6.06120        0.96425        1.41769
N         -6.62540        1.79073        2.00235
C         -3.94359       -0.00103        0.41458
S         -2.66129        1.10861        0.73497
C          0.46736        1.63705       -0.59348
Cl        -0.40074        3.01001       -1.17342
N          1.81923        1.70123       -0.55230
C          2.30699        0.57378       -0.11039
S          1.14462       -0.64155        0.28751
C          3.73210        0.32968        0.04260
S          4.90909        1.53646       -0.36412
C          6.13959        0.43288        0.10594
H          7.18943        0.68054        0.05386
C          5.57011       -0.73452        0.52354
Cl         6.46457       -2.10351        1.07682
N          4.21331       -0.79692        0.49037
