54
COMP61_200033.log	Energy: -2196833.7347739
C         -2.17152        0.85011        0.41357
C         -0.76562        0.49531        0.25772
C          0.21045        1.19480       -0.37939
Cl        -0.14879        2.61866       -1.29654
C          1.50785        0.56327       -0.32520
C          2.74672        0.98226       -0.83107
C          3.03125        2.36289       -1.33489
O          3.62568        2.60335       -2.35844
O          2.64113        3.29018       -0.45537
C          2.85539        4.64427       -0.86406
C          3.81366        0.09091       -0.76752
S          5.42292        0.40912       -1.37633
C          5.98127       -1.09999       -0.73872
H          7.02093       -1.37979       -0.84053
C          5.01783       -1.82754       -0.13294
Cl         5.39156       -3.31121        0.67679
C          3.71652       -1.18675       -0.15250
C          2.48412       -1.59565        0.37348
C          2.21594       -2.99957        0.82711
O          2.46179       -3.98024        0.17395
O          1.58688       -3.01452        2.00993
C          1.16498       -4.30638        2.46000
C          1.41354       -0.70202        0.30780
S         -0.19041       -1.00246        0.93007
C         -3.26149        0.10106        0.11240
C         -3.63466       -1.19714       -0.45896
O         -2.97860       -2.15286       -0.77746
N         -5.08385       -1.08166       -0.54985
C         -6.01854       -2.01909       -1.01930
O         -7.20312       -1.78441       -1.04275
O         -5.43416       -3.13807       -1.41156
C         -6.32411       -4.13913       -1.91397
C         -5.51588        0.16871       -0.09706
H         -6.56883        0.40719       -0.13947
C         -4.44796        0.88025        0.31309
C         -4.06632        2.20653        0.80200
O         -4.71405        3.15850        1.14274
N         -2.61742        2.11526        0.84854
C         -1.82665        3.14052        1.41529
O         -2.07202        4.30952        1.31548
O         -0.80364        2.60199        2.08286
C          0.21232        3.51878        2.49572
H          2.47600        5.25923       -0.04920
H          2.30799        4.85104       -1.78661
H          3.91953        4.82820       -1.02563
H          0.46420       -4.74461        1.74579
H          0.68094       -4.13530        3.42018
H          2.02759       -4.96632        2.57266
H         -5.68361       -4.97658       -2.18502
H         -6.86170       -3.76522       -2.78792
H         -7.04126       -4.43255       -1.14453
H          0.86974        2.94542        3.14733
H         -0.22761        4.36394        3.02730
H          0.76427        3.87082        1.62007
