40
COMP51_400020.log	Energy: -1691645.0278183
C          1.95276       -0.52520        0.19628
C          0.50921       -0.38388        0.11670
C         -0.23106        0.74370        0.32779
O          0.23752        1.96859        0.65780
C         -1.65339        0.53622        0.17806
C         -2.71524        1.43849        0.32130
O         -2.55096        2.75059        0.64884
C         -2.16577        3.58788       -0.43687
C         -4.00401        0.94587        0.15057
S         -5.45222        1.91318        0.27987
C         -6.43075        0.51779       -0.10183
H         -7.50736        0.61709       -0.15383
C         -5.70922       -0.61064       -0.30443
O         -6.18923       -1.84302       -0.61003
C         -4.28281       -0.40590       -0.15949
C         -3.22014       -1.30787       -0.29956
O         -3.38237       -2.62123       -0.62723
C         -3.75849       -3.45760        0.46184
C         -1.93256       -0.81540       -0.12982
S         -0.48771       -1.78411       -0.27099
C          2.67730       -1.56937        0.71192
H          2.23710       -2.44692        1.17036
N          4.03569       -1.45980        0.64246
C          4.38192       -0.33763        0.08136
S          3.05832        0.66496       -0.44059
C          5.75886        0.08507       -0.11712
S          7.08994       -0.91119        0.38922
C          8.16151        0.29798       -0.20501
H          9.23399        0.18323       -0.13896
C          7.45351        1.33834       -0.72874
H          7.88673        2.22772       -1.16895
N          6.09131        1.21397       -0.67765
H          1.17543        1.90942        0.88832
H         -2.12177        4.60091       -0.03493
H         -2.90955        3.54264       -1.24159
H         -1.18046        3.30572       -0.82006
H         -7.15016       -1.79397       -0.68030
H         -3.79998       -4.47152        0.06169
H         -4.74340       -3.17753        0.84750
H         -3.01211       -3.40803        1.26404
