32
COMP67_020001.log	Energy: -1625777.2745120
C         -3.21824        0.61925        0.14192
C         -1.86038        0.13758        0.26304
C         -1.39299       -1.07205        0.72286
Cl        -2.39098       -2.32488        1.35744
C          0.01996       -1.18284        0.71831
H          0.54044       -2.06044        1.08062
C          0.64144       -0.05344        0.24978
S         -0.52364        1.15843       -0.18119
C          2.05873        0.21812        0.07023
C          3.01165       -0.72924        0.06720
C          4.43635       -0.46671       -0.05941
C          5.11954        0.71949        0.03225
H          4.66064        1.67616        0.24836
C          6.51566        0.55080       -0.16513
Cl         7.63296        1.87705       -0.10299
C          6.89327       -0.73897       -0.39544
H          7.88988       -1.11853       -0.56792
S          5.52814       -1.78205       -0.37883
C         -4.36411        0.00495       -0.27687
C         -4.87526       -1.22520       -0.88715
O         -4.36911       -2.28682       -1.17903
N         -6.24072       -0.90026       -1.12059
H         -6.87716       -1.55916       -1.54094
C         -6.54619        0.39107       -0.75104
H         -7.53728        0.79595       -0.90490
C         -5.43325        0.96688       -0.23090
C         -4.90462        2.23896        0.26119
O         -5.41317        3.31072        0.50516
N         -3.52472        1.94746        0.42696
H         -2.91317        2.57858        0.92386
H          2.33689        1.25917       -0.07892
H          2.72090       -1.77416        0.15580
