48
COMP91_000001.log	Energy: -1384038.1389274
C          0.88859       -0.19836        0.15471
C         -0.58704       -0.18844        0.18472
C         -1.41946        0.49847       -0.63005
H         -1.05335        1.20596       -1.36362
C         -2.81262        0.20931       -0.41262
C         -3.92804        0.74800       -1.06939
C         -3.82809        1.77409       -2.16459
C         -5.16755        0.28162       -0.64230
S         -6.71005        0.79724       -1.29616
C         -7.55841       -0.26196       -0.20596
H         -8.63927       -0.29956       -0.23641
C         -6.74084       -0.96503        0.60645
H         -7.10981       -1.66905        1.34207
C         -5.34122       -0.67895        0.38802
C         -4.22509       -1.21691        1.04495
C         -4.32310       -2.23650        2.14690
C         -2.98619       -0.75176        0.61607
S         -1.44568       -1.26094        1.27561
C          1.50373       -1.45300       -0.09578
C          2.85936       -1.57586       -0.23807
C          3.44700       -2.91648       -0.50859
O          2.79483       -3.93502       -0.59346
N          4.82722       -2.93307       -0.66436
H          5.24050       -3.83988       -0.84944
C          5.71394       -1.86485       -0.60159
O          6.90451       -2.03197       -0.76138
C          5.09534       -0.53965       -0.32615
C          5.89808        0.57470       -0.24488
H          6.96751        0.46482       -0.38797
C          5.32387        1.82839        0.02053
C          3.96489        1.95063        0.20569
C          3.40688        3.29422        0.49813
O          4.07051        4.30876        0.55577
N          2.04238        3.31250        0.72426
H          1.64993        4.20671        0.99598
C          1.13545        2.25425        0.72502
O         -0.00610        2.45870        1.07301
C          1.69257        0.92889        0.30258
C          3.10608        0.82195        0.12439
C          3.69349       -0.43525       -0.14913
H         -2.79350        2.02608       -2.40351
H         -4.33846        2.70070       -1.87603
H         -4.30456        1.41045       -3.08282
H         -5.35735       -2.49497        2.38025
H         -3.85797       -1.86073        3.06620
H         -3.80195       -3.16125        1.87106
H          0.88697       -2.34020       -0.19922
H          5.93613        2.72135        0.08707
