62
COMP91_100023.log	Energy: -1888767.1153715
C         -0.69571       -0.02869        0.07713
C          0.76171       -0.26540        0.12602
C          1.49740       -0.88083       -0.82370
F          0.97387       -1.30097       -1.97896
C          2.89166       -1.04478       -0.50865
C          3.93286       -1.60575       -1.25545
O          3.76197       -2.11613       -2.50708
C          3.21107       -3.42969       -2.53802
C          5.20088       -1.60005       -0.68631
S          6.63815       -2.24648       -1.44396
C          7.59258       -1.81662       -0.05085
H          8.65189       -2.02678       -0.01550
C          6.86132       -1.21803        0.91028
F          7.37426       -0.79019        2.06725
C          5.46403       -1.05911        0.59428
C          4.42026       -0.50036        1.34132
O          4.58662        0.01339        2.59236
C          5.13700        1.32779        2.61924
C          3.15428       -0.50474        0.77169
S          1.72200        0.14082        1.53569
C         -1.52732       -1.16108        0.25610
C         -2.89401       -1.05034        0.26409
C         -3.72166       -2.27012        0.45243
O         -3.26153       -3.38427        0.57303
N         -5.10284       -2.06088        0.48428
C         -5.92820       -3.23398        0.71990
O         -6.25035       -3.59707        1.81189
O         -6.23387       -3.78946       -0.43808
C         -7.04597       -4.96612       -0.34502
C         -5.77787       -0.84722        0.32168
O         -6.98881       -0.80873        0.33972
C         -4.91743        0.34907        0.13148
C         -5.50462        1.58388       -0.02094
H         -6.58620        1.66067        0.00522
C         -4.70208        2.72307       -0.20636
C         -3.33033        2.61116       -0.24238
C         -2.52172        3.83723       -0.44684
O         -2.99186        4.95033       -0.54208
N         -1.14652        3.63141       -0.53387
C         -0.33592        4.79951       -0.83907
O         -0.13886        5.18638       -1.95220
O          0.11255        5.32185        0.28780
C          0.95021        6.47239        0.12512
C         -0.44970        2.42429       -0.40310
O          0.75309        2.41802       -0.54157
C         -1.27940        1.21781       -0.11251
C         -2.69568        1.35268       -0.08595
C         -3.50855        0.21257        0.10501
H          3.19385       -3.72518       -3.58761
H          2.19127       -3.43845       -2.14057
H          3.83724       -4.12592       -1.96782
H          5.15557        1.62533        3.66833
H          4.50888        2.02126        2.04796
H          6.15588        1.33457        2.22009
H         -1.07487       -2.13683        0.39730
H         -7.21126       -5.28401       -1.37286
H         -7.99241       -4.73016        0.14561
H         -6.52046       -5.73835        0.22066
H         -5.14726        3.70475       -0.32679
H          1.21812        6.77834        1.13493
H          0.40330        7.26548       -0.38886
H          1.84026        6.20693       -0.44938
