34
COMP57_010300.log	Energy: -1694546.2055240
C         -1.44878        0.36760       -0.02526
C         -0.06174       -0.02838       -0.05929
C          0.42807       -1.31253       -0.14284
F         -0.37667       -2.37512       -0.20688
C          1.82703       -1.44124       -0.16653
H          2.33187       -2.39443       -0.25139
C          2.44286       -0.21436       -0.09135
S          1.28568        1.07486       -0.00178
C          3.85726        0.11528       -0.07620
C          4.84279       -0.79223        0.03695
C          6.26156       -0.48242        0.03070
C          6.90009        0.71385       -0.18349
H          6.40774        1.65247       -0.40404
C          8.30683        0.58001       -0.09187
F          9.12294        1.62014       -0.26678
C          8.74690       -0.68005        0.18092
H          9.76669       -1.01627        0.29371
S          7.41118       -1.75173        0.33578
C         -2.01176        1.63382        0.03293
C         -1.27166        2.85645        0.06705
N         -0.65996        3.84113        0.09406
N         -3.37808        1.69462        0.05680
C         -3.88234        0.49911        0.01784
S         -2.73387       -0.80258       -0.05162
C         -5.31268        0.23735        0.02918
S         -6.46582        1.54137        0.09866
C         -7.72155        0.37594        0.07183
H         -8.76605        0.65190        0.09980
C         -7.19112       -0.88489        0.01449
C         -7.97915       -2.08174       -0.01882
N         -8.64016       -3.03237       -0.04447
N         -5.82154       -0.95862       -0.00987
H          4.10506        1.17125       -0.15653
H          4.58609       -1.84356        0.15172
