25
COMP12_110000.log	Energy: -1382728.2552928
C          2.79875        0.45690        0.03233
C          1.36700        0.58859       -0.06032
C          0.66399        1.73819       -0.31444
F          1.22759        2.92532       -0.51977
C         -0.73585        1.55497       -0.36937
F         -1.56663        2.55222       -0.64080
C         -1.11911        0.26047       -0.14454
S          0.26347       -0.74227        0.14906
C         -2.47319       -0.26123       -0.12675
S         -2.92172       -1.74806       -0.91168
C         -4.56471       -1.59908       -0.41239
H         -5.29985       -2.34698       -0.66918
C         -4.75615       -0.46147        0.30262
F         -5.91448       -0.06931        0.82187
C         -3.56534        0.30018        0.47086
F         -3.54405        1.42965        1.16610
C          3.76349        1.39397        0.01239
C          5.13048        0.85538        0.13254
C          5.21058       -0.47232        0.23916
H          6.07518       -1.11336        0.34110
S          3.57875       -1.17091        0.18766
O          3.22036       -1.76608        1.46853
O          3.37808       -1.93318       -1.03741
H          3.57381        2.45534       -0.07648
H          5.99393        1.51070        0.13572
