59
COMP96_000013.log	Energy: -1194111.4588812
C         -0.11558       -0.34129        0.21432
C         -1.51479       -0.84086        0.30024
C         -2.43752       -0.56455       -0.71505
C         -3.70396       -1.11134       -0.64148
C         -4.86552       -0.96224       -1.59688
H         -5.16389        0.08704       -1.71130
H         -4.62101       -1.33691       -2.59864
C         -5.94498       -1.78925       -0.93562
C         -7.24800       -2.02797       -1.34699
C         -8.06698       -2.83594       -0.55824
H         -9.08975       -3.02982       -0.86747
C         -7.58597       -3.39647        0.62597
C         -6.27893       -3.15934        1.04234
C         -5.46267       -2.35308        0.25543
C         -4.06783       -1.93213        0.43912
C         -3.15402       -2.21736        1.44567
C         -1.87477       -1.67607        1.36224
C          0.89428       -1.33470        0.13163
C          2.21861       -1.01351       -0.00665
C          3.22613       -2.10135       -0.09715
O          2.95585       -3.28064       -0.02762
N          4.54790       -1.68406       -0.27510
C          5.54274       -2.73355       -0.41614
O          5.86769       -3.18911       -1.47219
O          5.99120       -3.07142        0.77910
C          6.97270       -4.11482        0.77979
C          5.01711       -0.36850       -0.34140
O          6.20144       -0.14392       -0.46699
C          3.98075        0.69132       -0.24584
C          4.36162        2.01183       -0.31971
H          5.41132        2.25124       -0.44975
C          3.39072        3.02204       -0.22794
C          2.06172        2.70140       -0.05844
C          1.07638        3.80351        0.03995
O          1.35722        4.97799       -0.07155
N         -0.23351        3.40130        0.28470
C         -1.20266        4.45812        0.51483
O         -1.35464        4.98753        1.57550
O         -1.84599        4.71456       -0.61077
C         -2.85300        5.72718       -0.50485
C         -0.72776        2.09306        0.39688
O         -1.89604        1.93565        0.67310
C          0.26345        0.99754        0.18343
C          1.63590        1.35048        0.01828
C          2.61967        0.34075       -0.08030
H         -2.15496        0.07896       -1.54359
H         -7.62923       -1.59356       -2.26733
H         -8.23739       -4.02273        1.22812
H         -5.90692       -3.59682        1.96460
H         -3.42425       -2.85187        2.28465
H         -1.14803       -1.88978        2.14121
H          0.61065       -2.38183        0.16165
H          7.20972       -4.28639        1.82827
H          7.85907       -3.79456        0.22827
H          6.55975       -5.01620        0.32246
H          3.66657        4.06934       -0.28768
H         -3.28783        5.80936       -1.49952
H         -2.40155        6.67348       -0.19980
H         -3.60773        5.42781        0.22524
