33
COMP36_000010.log	Energy: -708487.4029681
C          2.04537       -0.07148       -0.06522
C          0.56927       -0.20498       -0.14732
C         -0.25752        0.74170        0.47125
C         -1.63125        0.59946        0.38819
C         -2.71784        1.47739        0.96514
H         -2.64687        1.55236        2.05744
H         -2.66355        2.50044        0.57242
C         -3.98016        0.77122        0.52583
C         -5.30537        1.10580        0.76292
C         -6.31029        0.28679        0.24821
H         -7.35200        0.53555        0.42765
C         -5.99081       -0.85102       -0.49431
C         -4.66219       -1.19006       -0.73530
C         -3.66037       -0.37331       -0.22071
C         -2.19800       -0.47926       -0.30657
C         -1.38378       -1.42135       -0.92565
C         -0.00405       -1.27827       -0.84123
C          2.85983       -1.14239        0.30980
F          2.31812       -2.32493        0.61652
C          4.24075       -1.01466        0.38816
F          4.96693       -2.07220        0.75707
C          4.86284        0.18768        0.09907
H          5.93912        0.28750        0.16378
C          4.07031        1.26005       -0.27338
F          4.63003        2.43549       -0.56780
C          2.68963        1.13325       -0.35512
F          1.98013        2.20155       -0.73296
H          0.18129        1.57541        1.01081
H         -5.56049        1.99087        1.33983
H         -6.78589       -1.47797       -0.88684
H         -4.41618       -2.07709       -1.31250
H         -1.81141       -2.25925       -1.46854
H          0.64075       -2.00634       -1.32198
