54
COMP71_200032.log	Energy: -2581245.2176063
C         -1.34954        0.73715       -1.72300
C          0.02793        0.51338       -1.27703
C          0.82846        1.38673       -0.61898
Cl         0.24693        2.93276       -0.10834
C          2.13204        0.85170       -0.28940
C          3.22321        1.45165        0.34941
C          3.31527        2.93072        0.58225
O          3.24645        3.75570       -0.29280
O          3.56021        3.21077        1.86844
C          3.74515        4.59816        2.16137
C          4.32399        0.65122        0.64810
S          5.74689        1.17371        1.52548
C          6.46253       -0.39259        1.35073
H          7.42038       -0.60585        1.80465
C          5.68518       -1.26762        0.67785
Cl         6.13660       -2.93287        0.52217
C          4.43361       -0.69678        0.21809
C          3.38838       -1.26023       -0.52511
C          3.52121       -2.56629       -1.24880
O          4.40318       -2.82143       -2.02894
O          2.49348       -3.38061       -0.97725
C          2.48280       -4.61286       -1.70213
C          2.23358       -0.50051       -0.70796
S          0.78475       -1.03754       -1.52275
C         -2.52339        0.42537       -1.08412
C         -2.62150       -0.21321        0.25828
O         -1.63659       -0.52371        0.90543
C         -4.00552       -0.42906        0.71742
C         -4.33466       -1.00934        1.91104
O         -3.47919       -1.45010        2.82632
C         -3.98686       -2.07286        3.99294
S         -6.07892       -1.11512        2.13479
C         -6.34689       -0.35382        0.56877
O         -7.56686       -0.12459        0.09517
C         -8.68543       -0.50093        0.87866
C         -5.17191       -0.05002       -0.05987
C         -5.07357        0.58861       -1.38300
O         -6.03179        0.91991       -2.06014
C         -3.67706        0.80405       -1.84329
C         -3.35774        1.38817       -3.03489
H         -4.05275        1.75796       -3.77639
S         -1.66263        1.49002       -3.25327
H          3.93691        4.64703        3.23224
H          2.84420        5.15958        1.90400
H          4.59150        4.99759        1.59789
H          1.59061       -5.13896       -1.36602
H          3.38217       -5.19002       -1.47619
H          2.43730       -4.42290       -2.77696
H         -3.11374       -2.35875        4.57811
H         -4.56780       -2.96808        3.73952
H         -4.60512       -1.37764        4.57399
H         -9.56217       -0.21646        0.29819
H         -8.69242        0.03272        1.83688
H         -8.69745       -1.58377        1.05310
