47
COMP66_000000.log	Energy: -720451.0895436
C          1.97197       -0.89929        0.06448
C          0.51418       -0.98656       -0.01936
C         -0.23062        0.14463        0.35453
C         -1.60404        0.12538        0.22383
C         -2.58638        1.24159        0.53502
C         -2.54260        1.63202        2.02114
C         -2.30652        2.46979       -0.34964
C         -3.90545        0.57817        0.16956
C         -5.18670        1.10289        0.24493
C         -6.26572        0.31309       -0.15244
H         -7.27384        0.71320       -0.09683
C         -6.06259       -0.98573       -0.62105
C         -4.77792       -1.51723       -0.69907
C         -3.70352       -0.72777       -0.30076
C         -2.26291       -1.00825       -0.27156
C         -1.53590       -2.13155       -0.65373
C         -0.15207       -2.11393       -0.52826
C          2.74793        0.22994       -0.03963
C          2.68513        1.66367       -0.28453
O          1.76753        2.46515       -0.37059
N          4.05574        2.03626       -0.37868
C          4.47320        3.40039       -0.60738
C          4.88636        0.94939       -0.20262
H          5.96062        1.06680       -0.26051
C          4.12754       -0.15344        0.01703
C          4.19378       -1.59300        0.21829
O          5.11596       -2.36570        0.37849
N          2.82191       -1.98994        0.22801
C          2.47672       -3.34510        0.60626
H          0.27936        1.03376        0.70969
H         -1.56442        2.05317        2.27679
H         -2.72555        0.76333        2.66100
H         -3.30397        2.38844        2.24095
H         -1.30253        2.86229       -0.15728
H         -3.03553        3.26183       -0.14491
H         -2.37228        2.20770       -1.40992
H         -5.35226        2.11410        0.60796
H         -6.91384       -1.58658       -0.92705
H         -4.62202       -2.52835       -1.06513
H         -2.03187       -3.00804       -1.06045
H          0.41520       -2.97317       -0.86583
H          3.56790        4.00963       -0.63120
H          4.99580        3.49792       -1.56435
H          5.12390        3.75177        0.19928
H          3.33895       -3.76014        1.13154
H          2.27662       -3.97486       -0.26666
H          1.60499       -3.34718        1.26405
