26
COMP53_000410.log	Energy: -952639.0902600
C          1.43694        0.17597       -0.02385
C          2.86001       -0.18708        0.01883
C          3.75730        0.58741        0.76863
C          5.11384        0.27832        0.79001
H          5.79336        0.88787        1.37796
C          5.59245       -0.81905        0.08147
H          6.64992       -1.06376        0.10381
C          4.70655       -1.60627       -0.65098
C          3.35392       -1.29074       -0.68898
H          2.67325       -1.89516       -1.28204
C          0.89454        1.43230       -0.17864
O          1.56958        2.58725       -0.34395
N         -0.46103        1.51473       -0.18347
C         -0.98405        0.32828       -0.03990
S          0.14464       -0.97601        0.10996
C         -2.41719        0.08874       -0.00195
S         -3.54835        1.39607       -0.13619
C         -4.82475        0.24287        0.00110
H         -5.86334        0.54046       -0.02337
C         -4.29919       -1.01418        0.13498
O         -4.96558       -2.17887        0.26867
N         -2.94083       -1.09781        0.13303
H          3.38203        1.41351        1.36753
H          5.07238       -2.46625       -1.20370
H          2.50393        2.37933       -0.48347
H         -5.91334       -2.00195        0.25413
