42
COMP51_000030.log	Energy: -1739502.2954533
C         -2.11748        0.53597        0.13381
C         -0.66984        0.43011        0.08389
C          0.07501       -0.70315        0.08333
H         -0.33836       -1.69994        0.12761
C          1.49038       -0.44817        0.03800
C          2.54061       -1.38734        0.03978
C          2.21552       -2.84435        0.07120
O          1.10669       -3.32372       -0.01430
O          3.31184       -3.60062        0.20667
C          3.09879       -5.01171        0.22841
C          3.85476       -0.90281        0.00205
S          5.33445       -1.84127       -0.00389
C          6.28801       -0.39562       -0.08693
H          7.36702       -0.47731       -0.11557
C          5.56442        0.74244       -0.10499
H          5.98685        1.73346       -0.15599
C          4.14356        0.49019       -0.05360
C          3.09165        1.42938       -0.05065
C          3.41131        2.88635       -0.11510
O          4.51630        3.36596       -0.23586
O          2.31055        3.64507       -0.02655
C          2.51588        5.05556       -0.10147
C          1.77933        0.94493        0.00424
S          0.30103        1.88515        0.01750
C         -2.88344        1.60955        0.51210
H         -2.48567        2.56086        0.84645
N         -4.23454        1.43126        0.47458
C         -4.52351        0.22567        0.06987
S         -3.15931       -0.78161       -0.30555
C         -5.88130       -0.27540       -0.07168
S         -7.25345        0.72407        0.30528
C         -8.27352       -0.59329       -0.12758
H         -9.35005       -0.51445       -0.07540
C         -7.52283       -1.66344       -0.51351
H         -7.91920       -2.61845       -0.83518
N         -6.16692       -1.47954       -0.48056
H          4.08783       -5.45252        0.34482
H          2.63604       -5.34112       -0.70453
H          2.45271       -5.28500        1.06556
H          1.52624        5.49899       -0.00144
H          2.96421        5.32253       -1.06099
H          3.17213        5.38676        0.70620
