31
COMP17_130000.log	Energy: -1422506.8541891
C          3.85601        0.01266       -0.21482
C          2.46530        0.39690       -0.16181
C          1.94713        1.67748       -0.05028
C          2.72886        2.86492        0.02757
N          3.38160        3.82208        0.07257
C          0.53021        1.67482       -0.01220
F         -0.15555        2.81099        0.09667
C         -0.04958        0.43511       -0.08793
S          1.19145       -0.76949       -0.22595
C         -1.44560        0.03916       -0.08026
C         -2.48113        0.89211        0.03774
C         -3.87859        0.49995        0.04581
C         -4.46330       -0.73282       -0.07197
F         -3.78136       -1.86496       -0.22727
C         -5.88754       -0.72996       -0.01706
C         -6.69002       -1.90539       -0.11638
N         -7.34316       -2.85891       -0.19675
C         -6.37944        0.53963        0.14503
H         -7.41744        0.83067        0.21983
S         -5.12700        1.69989        0.23002
C          4.94725        0.70409       -0.58099
C          6.20820       -0.05495       -0.48038
C          6.07712       -1.31075       -0.05187
H          6.82561       -2.07427        0.10765
S          4.36578       -1.64951        0.29467
O          4.16052       -1.82396        1.72484
O          3.81447       -2.62337       -0.64000
H         -1.63528       -1.02474       -0.17708
H         -2.28948        1.95526        0.13898
H          4.93012        1.72710       -0.93691
H          7.15669        0.39593       -0.74748
