35
COMP11_000020.log	Energy: -1325237.0371332
C         -2.96554       -0.68775       -0.23330
C         -1.54654       -0.39850       -0.20801
C         -0.56170       -1.29376        0.07559
H         -0.75087       -2.32162        0.36084
C          0.74903       -0.71582        0.02168
C          1.98117       -1.33402        0.26079
O          2.04705       -2.65934        0.59258
C          2.18088       -3.52297       -0.52993
C          3.12687       -0.55527        0.17182
S          4.76917       -1.08949        0.44008
C          5.36651        0.51395        0.09663
H          6.43246        0.69595        0.13561
C          4.39639        1.40841       -0.19328
H          4.57792        2.44738       -0.43832
C          3.07970        0.82350       -0.15452
C          1.84820        1.44057       -0.39198
O          1.77563        2.76489       -0.72362
C          1.64676        3.63054        0.40015
C          0.70069        0.66236       -0.30134
S         -0.93376        1.21330       -0.56216
C         -3.60768       -1.79868       -0.61974
C         -5.07307       -1.75259       -0.44605
C         -5.54029       -0.61138        0.06061
H         -6.55674       -0.30853        0.26956
S         -4.18492        0.49839        0.38679
O         -4.01546        0.68697        1.82082
O         -4.24160        1.65792       -0.49550
H          2.23857       -4.53691       -0.13147
H          3.09412       -3.29849       -1.09405
H          1.31481       -3.43684       -1.19824
H          1.57498        4.64250       -0.00063
H          2.52193        3.55311        1.05701
H          0.74179        3.39951        0.97435
H         -3.10683       -2.65878       -1.04904
H         -5.70329       -2.58766       -0.73009
