35
COMP11_300000.log	Energy: -1346609.7938281
C          3.12897        0.25678       -0.27965
C          1.68195        0.19958       -0.23100
C          0.81311        1.25851       -0.10730
C          1.29292        2.59786       -0.01459
N          1.71705        3.67687        0.03750
C         -0.58040        0.86275       -0.06978
C         -1.72778        1.66399        0.05186
C         -1.66159        3.16430        0.16297
C         -2.93580        0.97561        0.06588
S         -4.50466        1.75213        0.21782
C         -5.30547        0.23238        0.14867
H         -6.38424        0.18047        0.21223
C         -4.46243       -0.82677        0.01805
C         -4.99509       -2.15076       -0.04554
N         -5.47032       -3.20774       -0.09419
C         -3.05847       -0.43893       -0.03687
C         -1.91211       -1.23397       -0.16435
C         -1.90147       -2.73576       -0.27225
C         -0.70092       -0.54185       -0.16984
S          0.85308       -1.32779       -0.31139
C          3.95319        1.20436       -0.75111
C          5.38886        0.89872       -0.59436
C          5.65112       -0.27413       -0.01879
H          6.59895       -0.74097        0.21031
S          4.12721       -1.09526        0.39814
O          3.96745       -1.16743        1.84273
O          3.93736       -2.29066       -0.41456
H         -1.17263        3.60670       -0.71007
H         -1.09446        3.47308        1.04611
H         -2.65716        3.60766        0.24147
H         -2.88888       -3.16294       -0.43528
H         -1.49291       -3.18169        0.64248
H         -1.26410       -3.05392       -1.10534
H          3.61776        2.12072       -1.22069
H          6.15041        1.59023       -0.93497
