37
COMP11_400020.log	Energy: -1419610.3173991
C          3.13787       -0.64965       -0.32802
C          1.71683       -0.45913       -0.22383
C          1.00299        0.71347       -0.10395
O          1.45816        1.96571       -0.04571
C         -0.42961        0.49536       -0.07601
C         -1.46993        1.42518        0.05861
O         -1.27969        2.76331        0.20931
C         -1.02294        3.46815       -1.00219
C         -2.77070        0.93227        0.07896
S         -4.19422        1.93011        0.23904
C         -5.20991        0.51505        0.12919
H         -6.28580        0.62335        0.17929
C         -4.51690       -0.64128       -0.00875
O         -5.03042       -1.89314       -0.11562
C         -3.08310       -0.44192       -0.03589
C         -2.04122       -1.36984       -0.16994
O         -2.23635       -2.71171       -0.31267
C         -2.50941       -3.39665        0.90604
C         -0.74369       -0.87764       -0.19042
S          0.67417       -1.88194       -0.33661
C          3.86053       -1.62131       -0.91701
C          5.31719       -1.47195       -0.77537
C          5.72105       -0.40776       -0.07602
H          6.71469       -0.05091        0.15346
S          4.29507        0.46016        0.51123
O          4.19756        1.79381       -0.10967
O          4.16096        0.35933        1.95641
H          2.43496        2.02158       -0.12235
H         -0.95577        4.52168       -0.72835
H         -1.84447        3.32450       -1.71460
H         -0.07711        3.14596       -1.44625
H         -5.99317       -1.83854       -0.08567
H         -2.57530       -4.45509        0.65039
H         -3.46018       -3.06546        1.33439
H         -1.69838       -3.24245        1.62817
H          3.42115       -2.43525       -1.48172
H          6.00309       -2.17513       -1.23437
