27
COMP12_140000.log	Energy: -1352600.0861104
C         -2.54849        0.74954       -0.00028
C         -1.24091        0.15062       -0.00014
C         -0.88762       -1.17019       -0.00034
F         -1.73248       -2.20324       -0.00050
C          0.50549       -1.42146       -0.00031
O          1.04512       -2.66120       -0.00001
C          1.24940       -0.26810       -0.00010
S          0.20215        1.13116        0.00016
C          2.68934       -0.15178        0.00002
S          3.74566       -1.54805        0.00019
C          5.16173       -0.56521        0.00028
H          6.15006       -0.99994        0.00045
C          4.82989        0.74743        0.00002
F          5.68901        1.77915        0.00008
C          3.43135        1.00284       -0.00010
O          2.89129        2.24355       -0.00037
C         -2.90207        2.04666       -0.00058
C         -4.35338        2.28928       -0.00026
C         -5.10608        1.18875        0.00028
H         -6.18121        1.07741        0.00057
S         -4.06655       -0.25476        0.00029
O         -4.19612       -0.96922       -1.26184
O         -4.19516       -0.96871        1.26282
H          0.33098       -3.31306       -0.00266
H          3.60736        2.89286        0.00088
H         -2.19099        2.86537       -0.00094
H         -4.75811        3.29494       -0.00050
