29
COMP12_430000.log	Energy: -1343824.9545895
C          2.63484       -0.75606       -0.09114
C          1.34182       -0.12004       -0.10247
C          1.00364        1.17358       -0.46131
O          1.77983        2.17363       -0.86456
C         -0.41246        1.39227       -0.40592
C         -0.98914        2.64442       -0.77088
N         -1.45612        3.66380       -1.06504
C         -1.12600        0.27475       -0.01917
S         -0.07260       -1.04866        0.30576
C         -2.56399        0.14255        0.16551
S         -3.50110        1.42748        0.83314
C         -4.95346        0.50939        0.74249
H         -5.89099        0.94045        1.06560
C         -4.73591       -0.73492        0.22498
O         -5.63297       -1.71545        0.00098
C         -3.36066       -0.95633       -0.10620
C         -2.90439       -2.17697       -0.68507
N         -2.53893       -3.17377       -1.15110
C          3.00892       -2.02391       -0.33107
C          4.45577       -2.26956       -0.18627
C          5.18458       -1.20609        0.16048
H          6.25002       -1.10029        0.30642
S          4.10390        0.17857        0.39464
O          4.34595        1.21548       -0.62232
O          4.03172        0.57471        1.79154
H          2.73216        1.93470       -0.88181
H         -6.51411       -1.41650        0.25561
H          2.32434       -2.80517       -0.64148
H          4.88313       -3.24729       -0.37681
