31
COMP17_300000.log	Energy: -1298009.1155306
C         -3.34721       -0.67299       -0.37135
C         -2.06407       -0.03886       -0.19134
C         -1.82393        1.28129        0.08329
H         -2.60341        2.02524        0.19600
C         -0.43500        1.57082        0.17406
C          0.08599        2.86981        0.45963
N          0.51928        3.91864        0.69628
C          0.37963        0.46838       -0.02216
S         -0.57999       -0.93709       -0.33401
C          1.82718        0.45523        0.02648
C          2.57873       -0.65929        0.09051
C          4.03098       -0.69276        0.11058
C          4.96444        0.23334       -0.32386
C          4.63343        1.46627       -0.96188
N          4.37841        2.46860       -1.48695
C          6.31586       -0.18424       -0.11889
H          7.17176        0.41541       -0.40176
C          6.39574       -1.41430        0.45522
H          7.28698       -1.96642        0.71858
S          4.83872       -2.08216        0.75672
C         -3.70721       -1.81028       -0.98426
C         -5.15237       -2.10103       -0.92720
C         -5.88310       -1.19734       -0.27273
H         -6.94887       -1.15837       -0.09644
S         -4.82356        0.08722        0.35398
O         -4.74399        0.02449        1.80630
O         -5.09890        1.36082       -0.29977
H          2.29232        1.43770        0.02700
H          2.08855       -1.62960        0.15727
H         -3.01608       -2.46559       -1.50294
H         -5.56927       -2.98336       -1.39877
