31
COMP17_310000.log	Energy: -1422507.6458174
C         -3.85100        0.20688       -0.21496
C         -2.43980        0.50015       -0.18643
C         -1.85922        1.73923       -0.15314
F         -2.55502        2.87005       -0.15585
C         -0.44161        1.73996       -0.10960
C          0.31512        2.94476       -0.08066
N          0.93463        3.92493       -0.05569
C          0.07251        0.44993       -0.10993
S         -1.19885       -0.71710       -0.17647
C          1.43715       -0.04209       -0.08242
C          2.53560        0.72127        0.08096
C          3.90424        0.23909        0.10106
C          4.44484       -1.01791       -0.11984
C          3.71292       -2.19310       -0.44925
N          3.11163       -3.14804       -0.71703
C          5.86585       -1.01667        0.00688
F          6.57353       -2.12499       -0.16806
C          6.40046        0.19355        0.31123
H          7.44272        0.43506        0.45626
S          5.16168        1.37664        0.45227
C         -4.89434        0.95549       -0.60468
C         -6.20342        0.28968       -0.45853
C         -6.15566       -0.94815        0.03547
H         -6.95158       -1.65287        0.23097
S         -4.46838       -1.38049        0.39524
O         -3.99006       -2.44607       -0.47736
O         -4.25970       -1.47648        1.83286
H          1.53890       -1.11687       -0.20017
H          2.42915        1.79319        0.21865
H         -4.80233        1.95497       -1.01016
H         -7.12232        0.78580       -0.74879
