31
COMP17_320000.log	Energy: -1874783.2571031
C          3.99839       -0.20330       -0.31309
C          2.62989        0.26493       -0.27333
C          2.16482        1.55585       -0.23488
Cl         3.16866        2.95795       -0.23315
C          0.74316        1.65372       -0.16774
C          0.05968        2.90285       -0.13140
N         -0.51028        3.91249       -0.09850
C          0.12500        0.41291       -0.15204
S          1.29736       -0.85014       -0.23174
C         -1.27547        0.03044       -0.09542
C         -2.30470        0.86867        0.13294
C         -3.70705        0.49207        0.18305
C         -4.36092       -0.68476       -0.14459
C         -3.72252       -1.85000       -0.65775
N         -3.18938       -2.79269       -1.07295
C         -5.77440       -0.60191        0.06948
Cl        -6.84676       -1.91464       -0.25332
C         -6.17765        0.60741        0.54307
H         -7.18508        0.91668        0.78102
S         -4.84525        1.67217        0.73813
C          5.08762        0.29141       -0.91674
C          6.32054       -0.48766       -0.68111
C          6.16657       -1.56395        0.08984
H          6.88897       -2.30361        0.40532
S          4.46931       -1.68718        0.61219
O          4.35226       -1.44461        2.04230
O          3.81887       -2.84950        0.01820
H         -1.46450       -1.02856       -0.24294
H         -2.11191        1.92219        0.31046
H          5.08313        1.17502       -1.54283
H          7.26502       -0.19342       -1.12369
