37
COMP21_000020.log	Energy: -1347419.7533632
C          2.61581        0.90713       -0.09409
C          1.16853        0.68767       -0.04419
C          0.48641       -0.46775       -0.26161
H          0.97071       -1.40222       -0.50809
C         -0.93691       -0.31997       -0.14213
C         -1.92608       -1.29658       -0.29665
O         -1.61373       -2.59026       -0.60893
C         -1.20445       -3.36887        0.51035
C         -3.25131       -0.90952       -0.14366
S         -4.65215       -1.94409       -0.28736
C         -5.70352       -0.60121        0.07906
H         -6.77230       -0.76578        0.11903
C         -5.05021        0.56289        0.29019
H         -5.53745        1.49656        0.54272
C         -3.62134        0.42274        0.16322
C         -2.63078        1.39867        0.31593
O         -2.94778        2.69406        0.62602
C         -3.27670        3.48426       -0.50996
C         -1.30718        1.01119        0.16466
S          0.09272        2.03879        0.33098
C          3.55317       -0.18508       -0.00768
N          3.25897       -1.47931        0.12303
S          4.67343       -2.28024        0.17831
N          5.71399       -1.03983        0.04386
C          4.97435        0.06645       -0.05155
C          5.47939        1.39120       -0.18105
H          6.54947        1.55920       -0.21463
C          4.57017        2.40263       -0.25903
H          4.90942        3.42864       -0.36118
C          3.16384        2.16109       -0.21770
H          2.50490        3.02047       -0.30146
H         -1.01245       -4.37308        0.12983
H         -1.99518       -3.40744        1.26914
H         -0.28988       -2.96519        0.96100
H         -3.48014        4.48939       -0.13737
H         -4.16639        3.09255       -1.01841
H         -2.44257        3.51743       -1.22129
